*SPEF "IEEE 1481-1999"
*DESIGN "spare_logic_block"
*DATE "Tue Oct 17 02:38:51 2023"
*VENDOR "Synopsys Inc."
*PROGRAM "StarRC"
*VERSION "U-2022.12-SP4"
*DESIGN_FLOW "PIN_CAP NONE" "NAME_SCOPE LOCAL"
*DIVIDER /
*DELIMITER :
*BUS_DELIMITER []
*T_UNIT 1.0 NS
*C_UNIT 1.0 FF
*R_UNIT 1.0 OHM
*L_UNIT 1.0 HENRY

// COMMENTS

// CORNER_NAME 
// OPERATING_TEMPERATURE 125
// GLOBAL_TEMPERATURE 25
// TCAD_GRD_FILE /home/passant/caravel-gf180mcu/scripts/gf180mcu-tech/gf180mcu_1p5m_1tm_11k_sp_smim_OPTB_wst.nxtgrd
//   TCAD_TIME_STAMP Tue Dec 26 18:42:03 2017
//   TCADGRD_VERSION 75
// galaxy_comments_begin
//   local_nodeid
// galaxy_comments_end

*NAME_MAP
*47 spare_xfq[0]
*48 spare_xfq[1]
*49 spare_xi[0]
*50 spare_xi[1]
*51 spare_xi[2]
*52 spare_xi[3]
*53 spare_xib
*54 spare_xmx[0]
*55 spare_xmx[1]
*56 spare_xna[0]
*57 spare_xna[1]
*58 spare_xno[0]
*59 spare_xno[1]
*60 spare_xz[0]
*61 spare_xz[10]
*62 spare_xz[11]
*63 spare_xz[12]
*64 spare_xz[13]
*65 spare_xz[14]
*66 spare_xz[15]
*67 spare_xz[16]
*68 spare_xz[17]
*69 spare_xz[18]
*70 spare_xz[19]
*71 spare_xz[1]
*72 spare_xz[20]
*73 spare_xz[21]
*74 spare_xz[22]
*75 spare_xz[23]
*76 spare_xz[24]
*77 spare_xz[25]
*78 spare_xz[26]
*79 spare_xz[27]
*80 spare_xz[28]
*81 spare_xz[29]
*82 spare_xz[2]
*83 spare_xz[30]
*84 spare_xz[3]
*85 spare_xz[4]
*86 spare_xz[5]
*87 spare_xz[6]
*88 spare_xz[7]
*89 spare_xz[8]
*90 spare_xz[9]
*91 ANTENNA_spare_logic_biginv_I
*92 ANTENNA_spare_logic_flop\[0\]_CLK
*93 ANTENNA_spare_logic_flop\[0\]_RN
*94 ANTENNA_spare_logic_flop\[0\]_SETN
*95 ANTENNA_spare_logic_flop\[1\]_CLK
*96 ANTENNA_spare_logic_flop\[1\]_D
*97 ANTENNA_spare_logic_flop\[1\]_RN
*98 ANTENNA_spare_logic_flop\[1\]_SETN
*99 ANTENNA_spare_logic_inv\[3\]_I
*100 ANTENNA_spare_logic_mux\[1\]_I1
*101 ANTENNA_spare_logic_mux\[1\]_S
*102 ANTENNA_spare_logic_nand\[1\]_A2
*103 ANTENNA_spare_logic_nor\[0\]_A1
*104 ANTENNA_spare_logic_nor\[1\]_A1
*105 spare_logic_biginv
*106 spare_logic_const_one[0]
*107 spare_logic_const_one[1]
*108 spare_logic_const_one[2]
*109 spare_logic_const_one[3]
*110 spare_logic_const_zero[0]
*111 spare_logic_const_zero[10]
*112 spare_logic_const_zero[11]
*113 spare_logic_const_zero[12]
*114 spare_logic_const_zero[13]
*115 spare_logic_const_zero[14]
*116 spare_logic_const_zero[15]
*117 spare_logic_const_zero[16]
*118 spare_logic_const_zero[17]
*119 spare_logic_const_zero[18]
*120 spare_logic_const_zero[19]
*121 spare_logic_const_zero[1]
*122 spare_logic_const_zero[20]
*123 spare_logic_const_zero[21]
*124 spare_logic_const_zero[22]
*125 spare_logic_const_zero[23]
*126 spare_logic_const_zero[24]
*127 spare_logic_const_zero[25]
*128 spare_logic_const_zero[26]
*129 spare_logic_const_zero[2]
*130 spare_logic_const_zero[3]
*131 spare_logic_const_zero[4]
*132 spare_logic_const_zero[5]
*133 spare_logic_const_zero[6]
*134 spare_logic_const_zero[7]
*135 spare_logic_const_zero[8]
*136 spare_logic_const_zero[9]
*137 spare_logic_flop[0]
*138 spare_logic_flop[1]
*139 spare_logic_inv[0]
*140 spare_logic_inv[1]
*141 spare_logic_inv[2]
*142 spare_logic_inv[3]
*143 spare_logic_mux[0]
*144 spare_logic_mux[1]
*145 spare_logic_nand[0]
*146 spare_logic_nand[1]
*147 spare_logic_nor[0]
*148 spare_logic_nor[1]
*3 spare_xfq[0]
*4 spare_xfq[1]
*5 spare_xi[0]
*6 spare_xi[1]
*7 spare_xi[2]
*8 spare_xi[3]
*9 spare_xib
*10 spare_xmx[0]
*11 spare_xmx[1]
*12 spare_xna[0]
*13 spare_xna[1]
*14 spare_xno[0]
*15 spare_xno[1]
*16 spare_xz[0]
*17 spare_xz[10]
*18 spare_xz[11]
*19 spare_xz[12]
*20 spare_xz[13]
*21 spare_xz[14]
*22 spare_xz[15]
*23 spare_xz[16]
*24 spare_xz[17]
*25 spare_xz[18]
*26 spare_xz[19]
*27 spare_xz[1]
*28 spare_xz[20]
*29 spare_xz[21]
*30 spare_xz[22]
*31 spare_xz[23]
*32 spare_xz[24]
*33 spare_xz[25]
*34 spare_xz[26]
*35 spare_xz[27]
*36 spare_xz[28]
*37 spare_xz[29]
*38 spare_xz[2]
*39 spare_xz[30]
*40 spare_xz[3]
*41 spare_xz[4]
*42 spare_xz[5]
*43 spare_xz[6]
*44 spare_xz[7]
*45 spare_xz[8]
*46 spare_xz[9]

*PORTS

*47 O
*48 O
*49 O
*50 O
*51 O
*52 O
*53 O
*54 O
*55 O
*56 O
*57 O
*58 O
*59 O
*60 O
*61 O
*62 O
*63 O
*64 O
*65 O
*66 O
*67 O
*68 O
*69 O
*70 O
*71 O
*72 O
*73 O
*74 O
*75 O
*76 O
*77 O
*78 O
*79 O
*80 O
*81 O
*82 O
*83 O
*84 O
*85 O
*86 O
*87 O
*88 O
*89 O
*90 O

*D_NET *3 5.90699

*CONN
*P *47 O *C 4.0000 23.8000
*I *137:Q O *C 29.4000 14.2800 *D gf180mcu_fd_sc_mcu7t5v0__dffrsnq_2

*CAP
1 *3:2 *62 0.0899204
2 *3:2 *67 0.0422719
3 *47 *29:5 0.154395
4 *47 *29:6 0.0806134
5 *3:2 *30:4 0.00608896
6 *3:2 *31:4 0.811772
7 *3:2 *33:4 0.00740516
8 *3:2 *45:6 0.749181
9 *3:2 *46:4 0.102575
10 *3:2 *46:5 0.428649
11 *47 1.56667
12 *137:Q 0.77916
13 *3:2 1.08828
14 *3:3 0.0

*RES
1 *47 *3:2 28.8622
2 *137:Q *3:2 56.6602
3 *137:Q *3:3 0.001
*END

*D_NET *4 4.02165

*CONN
*P *48 O *C 67.4800 4.0000
*I *138:Q O *C 60.2000 17.6400 *D gf180mcu_fd_sc_mcu7t5v0__dffrsnq_2

*CAP
1 *48 *9:2 0.122011
2 *4:2 *28:4 0.34721
3 *4:2 *75 0.11953
4 *48 *32:6 0.00190397
5 *4:2 *32:6 0.070786
6 *48 *77 0.742677
7 *4:2 *77 0.294939
8 *48 *34:6 0.00373519
9 *4:2 *34:6 0.00679733
10 *48 1.86799
11 *4:2 0.444071
12 *4:3 0.0

*RES
1 *48 *4:2 44.5591
2 *138:Q *4:2 16.845
3 *138:Q *4:3 0.001
*END

*D_NET *5 3.71389

*CONN
*P *49 O *C 33.8800 66.0000
*I *139:ZN O *C 40.0400 52.3600 *D gf180mcu_fd_sc_mcu7t5v0__inv_2

*CAP
1 *5:2 *8:2 0.287302
2 *5:2 *11:2 0.597996
3 *5:2 *16:3 0.0717694
4 *5:2 *71 0.209203
5 *5:2 *40:5 0.01833
6 *5:2 *40:6 0.0997257
7 *49 0.399336
8 *139:ZN 0.57317
9 *5:2 1.45706
10 *5:3 0.0

*RES
1 *49 *5:2 7.04017
2 *139:ZN *5:2 53.7898
3 *139:ZN *5:3 0.001
*END

*D_NET *6 6.59762

*CONN
*P *50 O *C 27.1600 4.0000
*I *140:ZN O *C 35.0000 28.8400 *D gf180mcu_fd_sc_mcu7t5v0__inv_2

*CAP
1 *6:2 *23:5 0.0309519
2 *50 *74 0.00502708
3 *140:ZN *30:4 0.00280314
4 *140:ZN *30:5 0.00455875
5 *6:2 *74 0.0758477
6 *6:2 *30:4 0.000646102
7 *6:2 *30:5 0.491826
8 *140:ZN *31:4 0.0211199
9 *6:2 *31:4 1.02473
10 *140:ZN *93:I 0.0242395
11 *6:2 *33:4 1.11316
12 *6:2 *34:5 0.100975
13 *140:ZN *38:4 0.0929218
14 *6:2 *45:6 0.0177024
15 *50 0.404629
16 *140:ZN 1.64538
17 *6:2 1.5411
18 *6:4 0.0

*RES
1 *50 *6:2 3.25996
2 *140:ZN *6:2 63.9823
3 *140:ZN *6:4 0.001
4 *140:ZN *6:3 0.001
*END

*D_NET *7 4.51482

*CONN
*P *51 O *C 71.0000 10.3600
*I *141:ZN O *C 36.1200 13.1600 *D gf180mcu_fd_sc_mcu7t5v0__inv_2

*CAP
1 *7:2 *57 0.042979
2 *7:2 *59 0.0182257
3 *7:2 *75 0.00357644
4 *7:2 *93:I 0.064896
5 *7:2 *33:4 0.0314917
6 *7:2 *38:4 0.00358861
7 *7:2 *43:3 0.255892
8 *7:2 *45:6 0.0516538
9 *7:2 *45:8 0.0110644
10 *51 0.480425
11 *141:ZN 0.323631
12 *7:2 3.2274
13 *7:4 0.0

*RES
1 *51 *7:2 4.68491
2 *141:ZN *7:4 0.001
3 *141:ZN *7:3 0.001
4 *141:ZN *7:2 48.4649
*END

*D_NET *8 4.13068

*CONN
*P *52 O *C 4.0000 50.6800
*I *142:ZN O *C 35.0000 52.3600 *D gf180mcu_fd_sc_mcu7t5v0__inv_2

*CAP
1 *8:2 *5:2 0.287302
2 *8:2 *144:Z 0.0503386
3 *8:2 *11:2 0.0474742
4 *8:2 *12:3 0.219609
5 *8:2 *69 0.0110998
6 *8:2 *73 0.0135695
7 *8:2 *40:6 0.0191383
8 *8:2 *42:3 0.350153
9 *8:2 *44:3 0.165591
10 *52 0.451512
11 *142:ZN 0.0631756
12 *8:2 2.45172
13 *8:4 0.0

*RES
1 *52 *8:2 11.4303
2 *142:ZN *8:2 39.1566
3 *142:ZN *8:4 0.001
4 *142:ZN *8:3 0.001
*END

*D_NET *9 7.91468

*CONN
*P *53 O *C 71.0000 3.6400
*I *105:ZN O *C 43.8825 33.8150 *D gf180mcu_fd_sc_mcu7t5v0__inv_12

*CAP
1 *9:2 *48 0.122011
2 *9:2 *17:4 0.123453
3 *9:2 *21:3 0.113925
4 *9:2 *28:5 0.000906025
5 *9:2 *75 0.0541412
6 *9:2 *32:6 0.478293
7 *9:2 *34:6 0.01833
8 *9:2 *37:2 0.401899
9 *9:2 *90 0.0896341
10 *53 0.914345
11 *105:ZN 0.0734034
12 *9:2 4.24889
13 *9:3 0.0873642
14 *9:5 1.18809
15 *9:7 0.0

*RES
1 *53 *9:2 30.6486
2 *105:ZN *9:5 0.001
3 *105:ZN *9:6 0.001
4 *9:2 *9:5 66.1889
5 *9:3 *9:6 0.001
6 *9:3 *9:7 0.722666
7 *9:4 *9:5 0.001
8 *9:5 *9:6 0.001
9 *9:6 *9:7 18.4184
*END

*D_NET *10 5.52629

*CONN
*P *54 O *C 74.2000 4.0000
*I *143:Z O *C 65.8000 51.8000 *D gf180mcu_fd_sc_mcu7t5v0__mux2_2

*CAP
1 *143:Z *11:2 0.138324
2 *10:2 *11:2 0.108948
3 *143:Z *63 0.0468003
4 *54 1.26988
5 *143:Z 0.35812
6 *10:2 3.60422
7 *10:3 0.0

*RES
1 *54 *10:2 20.3183
2 *143:Z *10:2 59.4695
3 *143:Z *10:3 0.001
*END

*D_NET *11 8.38442

*CONN
*P *55 O *C 71.0000 50.6800
*I *144:Z O *C 35.0000 41.7200 *D gf180mcu_fd_sc_mcu7t5v0__mux2_2

*CAP
1 *11:2 *5:2 0.597996
2 *144:Z *8:2 0.0503386
3 *11:2 *8:2 0.0474742
4 *11:2 *143:Z 0.138324
5 *11:2 *10:2 0.108948
6 *11:2 *16:3 2.04964
7 *11:2 *63 0.0760789
8 *11:2 *19:3 0.0165964
9 *11:2 *20:3 0.735368
10 *11:2 *22:3 0.00465271
11 *144:Z *23:7 0.0162616
12 *144:Z *25:6 0.00106372
13 *144:Z *71 0.0299922
14 *11:2 *32:4 0.0109742
15 *55 0.416316
16 *144:Z 1.06024
17 *11:2 3.02415
18 *11:3 0.0

*RES
1 *55 *11:2 7.25802
2 *144:Z *11:2 50.6254
3 *144:Z *11:3 0.001
*END

*D_NET *12 3.01787

*CONN
*P *56 O *C 0.2800 66.0000
*I *145:ZN O *C 9.8000 54.0400 *D gf180mcu_fd_sc_mcu7t5v0__nand2_2

*CAP
1 *12:3 *8:2 0.219609
2 *12:3 *69 0.186328
3 *56 *73 0.0324527
4 *12:3 *73 0.576485
5 *12:3 *80 0.152787
6 *56 0.399336
7 *145:ZN 0.389656
8 *12:3 1.06121
9 *12:4 0.0

*RES
1 *56 *12:3 6.17905
2 *145:ZN *12:3 55.5121
3 *145:ZN *12:4 0.001
4 *145:ZN *12:2 0.001
*END

*D_NET *13 1.78794

*CONN
*P *57 O *C 40.6000 4.0000
*I *146:ZN O *C 40.6000 13.1600 *D gf180mcu_fd_sc_mcu7t5v0__nand2_2

*CAP
1 *57 *7:2 0.042979
2 *57 *43:3 0.095
3 *57 *45:8 0.470455
4 *57 1.17951
5 *13:3 0.0

*RES
1 *57 *13:3 4.74385
2 *146:ZN *13:3 16.845
3 *146:ZN *13:2 0.001
*END

*D_NET *14 1.21316

*CONN
*P *58 O *C 4.0000 17.0800
*I *147:ZN O *C 11.4800 17.0800 *D gf180mcu_fd_sc_mcu7t5v0__nor2_2

*CAP
1 *58 *62 0.0115362
2 *58 *137:CLK 0.0126308
3 *58 *29:5 0.122393
4 *58 *34:5 0.16444
5 *58 0.806443
6 *14:2 0.0957171
7 *14:3 0.0

*RES
1 *58 *14:2 20.7277
2 *147:ZN *14:2 16.845
3 *147:ZN *14:3 0.001
*END

*D_NET *15 6.79175

*CONN
*P *59 O *C 54.0400 4.0000
*I *148:ZN O *C 55.1600 36.1150 *D gf180mcu_fd_sc_mcu7t5v0__nor2_2

*CAP
1 *59 *7:2 0.0182257
2 *15:2 *19:3 0.0388001
3 *15:2 *32:4 1.66715
4 *15:2 *32:6 0.605852
5 *15:2 *34:6 0.497476
6 *59 1.05029
7 *15:2 2.91395
8 *15:9 0.0

*RES
1 *59 *15:2 14.3007
2 *148:ZN *15:3 0.001
3 *148:ZN *15:7 0.001
4 *148:ZN *15:6 0.001
5 *148:ZN *15:8 0.001
6 *148:ZN *15:5 0.001
7 *148:ZN *15:9 0.001
8 *15:2 *15:5 19.6308
9 *15:4 *15:5 0.001
*END

*D_NET *16 7.51754

*CONN
*P *60 O *C 71.0000 57.4000
*I *110:ZN O *C 40.0400 48.4400 *D gf180mcu_fd_sc_mcu7t5v0__tiel
*I *139:I I *C 41.1600 52.9200

*CAP
1 *16:3 *5:2 0.0717694
2 *16:3 *11:2 2.04964
3 *60 *63 0.00502183
4 *60 *19:3 0.0140156
5 *60 *20:3 0.00261663
6 *16:3 *20:3 0.0173147
7 *60 *22:3 0.268833
8 *60 *24:4 0.00205449
9 *16:3 *71 0.174
10 *60 *32:4 0.750432
11 *60 *40:6 0.729762
12 *16:3 *40:6 0.133893
13 *60 1.87291
14 *110:ZN 0.0681
15 *16:3 1.35718
16 *16:5 0.0

*RES
1 *60 *16:3 68.657
2 *110:ZN *16:3 19.3566
3 *110:ZN *16:4 0.001
4 *139:I *16:5 0.001
5 *139:I *16:3 17.1807
*END

*D_NET *17 9.03052

*CONN
*P *61 O *C 4.0000 37.2400
*I *104:I I *C 50.6800 33.8800
*I *111:ZN O *C 48.4400 37.8000 *D gf180mcu_fd_sc_mcu7t5v0__tiel
*I *148:A1 I *C 52.9200 37.2400

*CAP
1 *17:4 *9:2 0.123453
2 *104:I *19:3 0.00244545
3 *104:I *21:3 0.00489885
4 *17:4 *21:3 0.66943
5 *17:4 *23:5 1.1141
6 *17:4 *23:7 0.00673318
7 *61 *25:5 0.453244
8 *17:4 *25:5 0.411137
9 *17:4 *25:6 0.0316241
10 *104:I *28:5 0.0311548
11 *17:4 *28:5 0.0949577
12 *61 *41:5 0.831369
13 *17:4 *41:5 0.80581
14 *61 1.10978
15 *104:I 0.200168
16 *111:ZN 0.0898618
17 *148:A1 0.102773
18 *17:4 2.57024
19 *17:5 0.377334
20 *17:8 0.0

*RES
1 *61 *17:4 22.7428
2 *104:I *17:5 35.2226
3 *104:I *17:7 0.001
4 *111:ZN *17:4 34.0744
5 *111:ZN *17:6 0.001
6 *148:A1 *17:5 35.2713
7 *148:A1 *17:8 0.001
8 *17:4 *17:5 1.4352
*END

*D_NET *18 2.84747

*CONN
*P *62 O *C 13.7200 4.0000
*I *112:ZN O *C 18.2000 16.5200 *D gf180mcu_fd_sc_mcu7t5v0__tiel
*I *147:A2 I *C 13.7200 18.2000

*CAP
1 *62 *3:2 0.0899204
2 *62 *58 0.0115362
3 *62 *26:3 0.0457841
4 *62 *34:5 0.0331891
5 *62 *46:4 0.308919
6 *62 2.06137
7 *112:ZN 0.11419
8 *18:3 0.18256
9 *18:5 0.0

*RES
1 *62 *18:3 6.4174
2 *112:ZN *18:5 0.001
3 *112:ZN *18:3 52.9287
4 *147:A2 *18:4 0.001
5 *147:A2 *18:3 17.7548
*END

*D_NET *19 6.62116

*CONN
*P *63 O *C 67.4800 66.0000
*I *113:ZN O *C 56.8400 40.0400 *D gf180mcu_fd_sc_mcu7t5v0__tiel
*I *148:A2 I *C 55.1600 37.2400

*CAP
1 *63 *143:Z 0.0468003
2 *63 *11:2 0.0760789
3 *19:3 *11:2 0.0165964
4 *19:3 *15:2 0.0388001
5 *63 *60 0.00502183
6 *19:3 *60 0.0140156
7 *19:3 *104:I 0.00244545
8 *63 *20:3 0.00178648
9 *19:3 *20:3 0.721224
10 *19:3 *21:3 0.087885
11 *63 *66 0.0103734
12 *63 *22:3 0.073531
13 *19:3 *22:3 0.00300098
14 *19:3 *24:4 0.00169655
15 *19:3 *72 0.0575916
16 *19:3 *32:4 0.490927
17 *63 *84 0.113284
18 *63 *40:6 0.07584
19 *63 2.41816
20 *113:ZN 0.0378178
21 *148:A2 0.227173
22 *19:3 2.10111
23 *19:5 0.0

*RES
1 *63 *19:3 69.5873
2 *113:ZN *19:3 33.69
3 *113:ZN *19:5 0.001
4 *148:A2 *19:3 36.1324
5 *148:A2 *19:4 0.001
*END

*D_NET *20 5.64971

*CONN
*P *64 O *C 47.3200 66.0000
*I *114:ZN O *C 60.7600 48.4400 *D gf180mcu_fd_sc_mcu7t5v0__tiel
*I *143:I0 I *C 60.2000 53.4800

*CAP
1 *20:3 *11:2 0.735368
2 *20:3 *60 0.00261663
3 *20:3 *16:3 0.0173147
4 *20:3 *63 0.00178648
5 *20:3 *19:3 0.721224
6 *20:3 *24:4 0.00696625
7 *64 3.03248
8 *114:ZN 0.0587564
9 *20:3 1.0732
10 *20:5 0.0

*RES
1 *64 *20:3 48.5777
2 *114:ZN *20:3 17.7061
3 *114:ZN *20:5 0.001
4 *143:I0 *20:4 0.001
5 *143:I0 *20:3 18.6159
*END

*D_NET *21 4.64823

*CONN
*P *65 O *C 71.0000 37.2400
*I *115:ZN O *C 42.8400 38.3600 *D gf180mcu_fd_sc_mcu7t5v0__tiel
*I *144:I0 I *C 40.6000 40.6000

*CAP
1 *21:3 *9:2 0.113925
2 *21:3 *104:I 0.00489885
3 *21:3 *17:4 0.66943
4 *21:3 *19:3 0.087885
5 *21:3 *25:5 0.00193166
6 *21:3 *25:6 0.0886063
7 *21:3 *71 0.104986
8 *65 1.71658
9 *115:ZN 0.0500739
10 *144:I0 0.153709
11 *21:3 1.6562
12 *21:5 0.0

*RES
1 *65 *21:3 15.0081
2 *115:ZN *21:3 33.69
3 *115:ZN *21:5 0.001
4 *144:I0 *21:3 36.1324
5 *144:I0 *21:4 0.001
*END

*D_NET *22 4.15583

*CONN
*P *66 O *C 60.7600 66.0000
*I *116:ZN O *C 56.8400 54.0400 *D gf180mcu_fd_sc_mcu7t5v0__tiel
*I *143:I1 I *C 64.1200 52.9200

*CAP
1 *22:3 *11:2 0.00465271
2 *22:3 *60 0.268833
3 *66 *63 0.0103734
4 *22:3 *63 0.073531
5 *22:3 *19:3 0.00300098
6 *66 *24:4 0.326421
7 *22:3 *24:4 0.00313476
8 *22:3 *32:4 0.0167875
9 *22:3 *40:6 0.914852
10 *66 1.0659
11 *116:ZN 0.246296
12 *143:I1 0.195785
13 *22:3 1.02627
14 *22:5 0.0

*RES
1 *66 *22:3 22.1629
2 *116:ZN *22:3 36.7065
3 *116:ZN *22:4 0.001
4 *143:I1 *22:3 36.9935
5 *143:I1 *22:5 0.001
*END

*D_NET *23 10.2017

*CONN
*P *67 O *C 4.0000 10.3600
*I *100:I I *C 31.6400 40.0400
*I *117:ZN O *C 32.7600 37.8000 *D gf180mcu_fd_sc_mcu7t5v0__tiel
*I *144:I1 I *C 36.6800 41.1600

*CAP
1 *67 *3:2 0.0422719
2 *23:5 *6:2 0.0309519
3 *23:7 *144:Z 0.0162616
4 *23:5 *17:4 1.1141
5 *23:7 *17:4 0.00673318
6 *23:5 *25:5 0.0165358
7 *23:7 *25:5 0.0829942
8 *23:7 *25:6 0.0590966
9 *67 *70 0.390777
10 *23:7 *71 0.00175214
11 *23:5 *29:6 0.0238227
12 *67 *74 0.038238
13 *67 *31:4 0.0213813
14 *23:5 *31:4 0.00881368
15 *23:5 *33:4 0.448898
16 *23:5 *41:5 0.0738556
17 *23:7 *41:5 0.0134075
18 *23:5 *89 0.860272
19 *67 3.47467
20 *117:ZN 0.131303
21 *144:I1 0.290185
22 *23:4 0.0861439
23 *23:5 2.05734
24 *23:7 0.911928
25 *23:9 0.0

*RES
1 *67 *23:5 61.5431
2 *100:I *23:7 16.845
3 *100:I *23:6 0.001
4 *100:I *23:4 0.001
5 *117:ZN *23:5 34.9843
6 *117:ZN *23:8 0.001
7 *144:I1 *23:7 53.8385
8 *144:I1 *23:9 0.001
9 *23:5 *23:7 18.6159
*END

*D_NET *24 2.69735

*CONN
*P *68 O *C 71.0000 64.1200
*I *118:ZN O *C 62.4400 56.2800 *D gf180mcu_fd_sc_mcu7t5v0__tiel
*I *143:S I *C 63.0000 53.4800

*CAP
1 *24:4 *60 0.00205449
2 *24:4 *19:3 0.00169655
3 *24:4 *20:3 0.00696625
4 *24:4 *66 0.326421
5 *24:4 *22:3 0.00313476
6 *68 *84 0.0973855
7 *24:4 *40:6 0.01488
8 *68 0.842456
9 *143:S 0.0451211
10 *24:4 1.35723
11 *24:5 0.0

*RES
1 *68 *24:4 25.3486
2 *118:ZN *24:4 16.845
3 *118:ZN *24:3 0.001
4 *143:S *24:4 18.3289
5 *143:S *24:5 0.001
*END

*D_NET *25 10.1544

*CONN
*P *69 O *C 13.7200 66.0000
*I *101:I I *C 43.4000 40.0400
*I *119:ZN O *C 35.5600 38.3600 *D gf180mcu_fd_sc_mcu7t5v0__tiel
*I *144:S I *C 37.8000 40.6000

*CAP
1 *69 *8:2 0.0110998
2 *25:6 *144:Z 0.00106372
3 *69 *12:3 0.186328
4 *25:5 *61 0.453244
5 *25:5 *17:4 0.411137
6 *25:6 *17:4 0.0316241
7 *25:5 *21:3 0.00193166
8 *25:6 *21:3 0.0886063
9 *25:5 *23:5 0.0165358
10 *25:5 *23:7 0.0829942
11 *25:6 *23:7 0.0590966
12 *25:6 *71 0.0500457
13 *69 *73 0.0630072
14 *69 *80 0.0378379
15 *69 *83 0.0351377
16 *69 *85 0.0298785
17 *25:5 *85 1.6198
18 *69 *42:3 0.0599805
19 *69 *44:3 0.00219835
20 *69 *89 0.135534
21 *69 3.56397
22 *101:I 0.340325
23 *119:ZN 0.0303078
24 *25:4 0.0868455
25 *25:5 2.0651
26 *25:6 0.690733
27 *25:9 0.0

*RES
1 *69 *25:5 47.8992
2 *101:I *25:6 53.5028
3 *101:I *25:9 0.001
4 *101:I *25:4 0.001
5 *119:ZN *25:5 33.69
6 *119:ZN *25:7 0.001
7 *144:S *25:8 0.001
8 *144:S *25:6 17.1807
9 *25:5 *25:6 18.9517
*END

*D_NET *26 2.68807

*CONN
*P *70 O *C 0.2800 4.0000
*I *120:ZN O *C 10.9200 8.6800 *D gf180mcu_fd_sc_mcu7t5v0__tiel
*I *137:D I *C 10.9200 13.7200

*CAP
1 *26:3 *62 0.0457841
2 *70 *67 0.390777
3 *26:3 *137:CLK 0.0188905
4 *26:3 *78 0.0185085
5 *70 1.09595
6 *26:3 1.11816
7 *26:5 0.0

*RES
1 *70 *26:3 41.6887
2 *120:ZN *26:3 16.845
3 *120:ZN *26:4 0.001
4 *137:D *26:5 0.001
5 *137:D *26:3 19.4771
*END

*D_NET *27 5.72105

*CONN
*P *71 O *C 40.6000 66.0000
*I *121:ZN O *C 39.4800 37.8000 *D gf180mcu_fd_sc_mcu7t5v0__tiel
*I *140:I I *C 36.6800 29.4000

*CAP
1 *71 *5:2 0.209203
2 *71 *144:Z 0.0299922
3 *71 *16:3 0.174
4 *71 *21:3 0.104986
5 *71 *23:7 0.00175214
6 *71 *25:6 0.0500457
7 *71 *40:6 0.0341845
8 *71 1.92848
9 *140:I 0.0682677
10 *27:3 3.12014
11 *27:5 0.0

*RES
1 *71 *27:3 15.0645
2 *121:ZN *27:5 0.001
3 *121:ZN *27:3 16.845
4 *140:I *27:3 22.4782
5 *140:I *27:4 0.001
*END

*D_NET *28 12.1666

*CONN
*P *72 O *C 71.0000 43.9600
*I *96:I I *C 63.0000 18.2000
*I *122:ZN O *C 47.8800 14.8400 *D gf180mcu_fd_sc_mcu7t5v0__tiel
*I *138:D I *C 42.2800 17.6400

*CAP
1 *28:4 *4:2 0.34721
2 *28:5 *9:2 0.000906025
3 *28:5 *104:I 0.0311548
4 *28:5 *17:4 0.0949577
5 *72 *19:3 0.0575916
6 *28:4 *30:5 0.0136671
7 *28:4 *75 0.000516143
8 *28:4 *31:5 0.0749599
9 *28:4 *32:6 1.38134
10 *28:4 *77 1.10023
11 *28:4 *33:4 0.0338356
12 *28:4 *34:5 1.45337
13 *28:4 *34:6 0.00638506
14 *28:5 *34:6 0.0127393
15 *28:4 *43:3 0.00170512
16 *28:5 *90 0.0746912
17 *72 3.45478
18 *96:I 0.0540843
19 *138:D 0.0685191
20 *28:4 0.810409
21 *28:5 3.09355
22 *28:8 0.0

*RES
1 *72 *28:5 42.1379
2 *96:I *28:4 41.7758
3 *96:I *28:8 0.001
4 *122:ZN *28:5 18.3289
5 *122:ZN *28:7 0.001
6 *138:D *28:4 36.5732
7 *138:D *28:6 0.001
8 *28:4 *28:5 16.845
*END

*D_NET *29 10.3597

*CONN
*P *73 O *C 7.0000 66.0000
*I *92:I I *C 27.1600 18.2000
*I *123:ZN O *C 11.4800 22.1200 *D gf180mcu_fd_sc_mcu7t5v0__tiel
*I *137:CLK I *C 9.2400 13.7200

*CAP
1 *29:5 *47 0.154395
2 *29:6 *47 0.0806134
3 *73 *8:2 0.0135695
4 *73 *56 0.0324527
5 *73 *12:3 0.576485
6 *137:CLK *58 0.0126308
7 *29:5 *58 0.122393
8 *29:6 *23:5 0.0238227
9 *73 *69 0.0630072
10 *137:CLK *26:3 0.0188905
11 *29:6 *31:4 0.115497
12 *29:6 *31:5 0.0485052
13 *29:6 *33:4 0.00458775
14 *137:CLK *78 0.0633367
15 *29:5 *34:5 0.117097
16 *29:6 *34:5 0.4553
17 *73 *83 0.0116087
18 *73 *89 0.115207
19 *29:6 *46:4 0.0192297
20 *73 3.73289
21 *92:I 0.250664
22 *123:ZN 0.159427
23 *137:CLK 0.48902
24 *29:5 1.90945
25 *29:6 1.76963
26 *29:9 0.0

*RES
1 *73 *29:5 49.4804
2 *92:I *29:9 0.001
3 *92:I *29:6 42.9855
4 *123:ZN *29:8 0.001
5 *123:ZN *29:6 34.6485
6 *137:CLK *29:7 0.001
7 *137:CLK *29:4 0.001
8 *137:CLK *29:5 37.2319
9 *29:5 *29:6 1.18404
*END

*D_NET *30 6.91373

*CONN
*P *74 O *C 4.0000 3.6400
*I *95:I I *C 38.3600 21.0000
*I *124:ZN O *C 31.6400 8.6800 *D gf180mcu_fd_sc_mcu7t5v0__tiel
*I *138:CLK I *C 39.4800 17.6400

*CAP
1 *30:4 *3:2 0.00608896
2 *74 *50 0.00502708
3 *30:4 *140:ZN 0.00280314
4 *30:5 *140:ZN 0.00455875
5 *74 *6:2 0.0758477
6 *30:4 *6:2 0.000646102
7 *30:5 *6:2 0.491826
8 *74 *67 0.038238
9 *30:5 *28:4 0.0136671
10 *74 *31:4 0.0412666
11 *30:4 *31:4 0.0183045
12 *30:5 *31:5 0.0685876
13 *30:4 *93:I 0.00553751
14 *30:4 *33:4 0.0153922
15 *30:5 *33:4 0.217697
16 *30:5 *34:5 0.422718
17 *74 *79 0.0671638
18 *30:4 *38:4 0.11424
19 *30:5 *45:6 0.00254259
20 *30:5 *45:8 0.00183807
21 *74 2.44775
22 *95:I 0.0188463
23 *30:4 2.58662
24 *30:5 0.246521
25 *30:8 0.0

*RES
1 *74 *30:4 67.5293
2 *95:I *30:7 0.001
3 *95:I *30:5 19.19
4 *124:ZN *30:4 16.845
5 *124:ZN *30:6 0.001
6 *138:CLK *30:5 16.845
7 *138:CLK *30:8 0.001
8 *30:4 *30:5 42.4473
*END

*D_NET *31 10.3857

*CONN
*P *75 O *C 60.7600 4.0000
*I *94:I I *C 32.7600 21.0000
*I *125:ZN O *C 28.2800 9.2400 *D gf180mcu_fd_sc_mcu7t5v0__tiel
*I *137:SETN I *C 23.2400 13.7200

*CAP
1 *31:4 *3:2 0.811772
2 *75 *4:2 0.11953
3 *31:4 *140:ZN 0.0211199
4 *31:4 *6:2 1.02473
5 *75 *7:2 0.00357644
6 *75 *9:2 0.0541412
7 *31:4 *67 0.0213813
8 *31:4 *23:5 0.00881368
9 *75 *28:4 0.000516143
10 *31:5 *28:4 0.0749599
11 *31:4 *29:6 0.115497
12 *31:5 *29:6 0.0485052
13 *31:4 *74 0.0412666
14 *31:4 *30:4 0.0183045
15 *31:5 *30:5 0.0685876
16 *75 *32:6 0.00224486
17 *31:5 *32:6 0.13132
18 *31:4 *33:4 0.00472119
19 *75 *34:6 0.00959529
20 *31:5 *34:5 0.605697
21 *75 *37:2 0.000781824
22 *31:4 *45:6 0.0384754
23 *75 3.31868
24 *94:I 0.05569
25 *125:ZN 0.287195
26 *137:SETN 0.516313
27 *31:4 0.811818
28 *31:5 2.17044
29 *31:8 0.0

*RES
1 *75 *31:5 39.6852
2 *94:I *31:5 34.0744
3 *94:I *31:8 0.001
4 *125:ZN *31:4 19.19
5 *125:ZN *31:7 0.001
6 *137:SETN *31:4 53.2158
7 *137:SETN *31:6 0.001
8 *31:4 *31:5 22.7191
*END

*D_NET *32 13.0909

*CONN
*P *76 O *C 54.0400 66.0000
*I *98:I I *C 63.0000 14.8400
*I *126:ZN O *C 54.6000 22.6800 *D gf180mcu_fd_sc_mcu7t5v0__tiel
*I *138:SETN I *C 54.0400 17.6400

*CAP
1 *32:6 *48 0.00190397
2 *32:6 *4:2 0.070786
3 *32:6 *9:2 0.478293
4 *32:4 *11:2 0.0109742
5 *32:4 *15:2 1.66715
6 *32:6 *15:2 0.605852
7 *32:4 *60 0.750432
8 *32:4 *19:3 0.490927
9 *32:4 *22:3 0.0167875
10 *32:6 *28:4 1.38134
11 *32:6 *75 0.00224486
12 *32:6 *31:5 0.13132
13 *32:6 *77 0.0270741
14 *32:6 *34:5 0.0185717
15 *32:6 *34:6 0.0659238
16 *32:6 *37:2 0.0109231
17 *76 *40:6 0.00596073
18 *76 4.08376
19 *98:I 0.203782
20 *126:ZN 0.123565
21 *138:SETN 0.279854
22 *32:4 1.68913
23 *32:5 0.117319
24 *32:6 0.856997
25 *32:9 0.0

*RES
1 *76 *32:4 23.1016
2 *98:I *32:6 39.8152
3 *98:I *32:9 0.001
4 *98:I *32:5 0.001
5 *126:ZN *32:4 51.2065
6 *126:ZN *32:8 0.001
7 *138:SETN *32:6 35.2713
8 *138:SETN *32:7 0.001
9 *32:4 *32:6 18.8671
*END

*D_NET *33 10.4001

*CONN
*P *77 O *C 71.0000 17.0800
*I *93:I I *C 34.4400 10.3600
*I *127:ZN O *C 30.5200 16.5200 *D gf180mcu_fd_sc_mcu7t5v0__tiel
*I *137:RN I *C 25.4800 13.7200

*CAP
1 *33:4 *3:2 0.00740516
2 *77 *48 0.742677
3 *77 *4:2 0.294939
4 *93:I *140:ZN 0.0242395
5 *33:4 *6:2 1.11316
6 *93:I *7:2 0.064896
7 *33:4 *7:2 0.0314917
8 *33:4 *23:5 0.448898
9 *77 *28:4 1.10023
10 *33:4 *28:4 0.0338356
11 *33:4 *29:6 0.00458775
12 *93:I *30:4 0.00553751
13 *33:4 *30:4 0.0153922
14 *33:4 *30:5 0.217697
15 *33:4 *31:4 0.00472119
16 *77 *32:6 0.0270741
17 *77 *34:5 0.62983
18 *77 *34:6 0.150674
19 *33:4 *34:5 0.0890598
20 *93:I *38:4 0.529466
21 *33:4 *38:4 0.013051
22 *33:4 *43:3 0.00848171
23 *33:4 *89 0.00257184
24 *33:4 *45:6 0.313671
25 *77 1.87177
26 *93:I 0.0015314
27 *127:ZN 0.0629562
28 *137:RN 0.170851
29 *33:4 2.21944
30 *33:5 0.19994
31 *33:8 0.0

*RES
1 *77 *33:4 18.7396
2 *93:I *33:4 36.6091
3 *93:I *33:8 0.001
4 *127:ZN *33:5 33.69
5 *127:ZN *33:7 0.001
6 *137:RN *33:5 37.8547
7 *137:RN *33:6 0.001
8 *33:4 *33:5 2.29632
*END

*D_NET *34 12.6302

*CONN
*P *78 O *C 7.0000 4.0000
*I *97:I I *C 65.2400 14.8400
*I *128:ZN O *C 51.8000 14.8400 *D gf180mcu_fd_sc_mcu7t5v0__tiel
*I *138:RN I *C 55.7200 17.6400

*CAP
1 *34:6 *48 0.00373519
2 *34:6 *4:2 0.00679733
3 *34:5 *6:2 0.100975
4 *34:6 *9:2 0.01833
5 *34:5 *58 0.16444
6 *34:6 *15:2 0.497476
7 *34:5 *62 0.0331891
8 *78 *26:3 0.0185085
9 *34:5 *28:4 1.45337
10 *34:6 *28:4 0.00638506
11 *34:6 *28:5 0.0127393
12 *78 *137:CLK 0.0633367
13 *34:5 *29:5 0.117097
14 *34:5 *29:6 0.4553
15 *34:5 *30:5 0.422718
16 *34:6 *75 0.00959529
17 *34:5 *31:5 0.605697
18 *34:5 *32:6 0.0185717
19 *34:6 *32:6 0.0659238
20 *34:5 *77 0.62983
21 *34:6 *77 0.150674
22 *34:5 *33:4 0.0890598
23 *34:5 *45:6 0.0270343
24 *34:5 *46:4 0.36506
25 *78 4.90544
26 *97:I 0.612186
27 *128:ZN 0.0628857
28 *34:4 0.091654
29 *34:5 0.829567
30 *34:6 0.792632
31 *34:9 0.0

*RES
1 *78 *34:5 64.8416
2 *97:I *34:6 57.0447
3 *97:I *34:9 0.001
4 *97:I *34:4 0.001
5 *128:ZN *34:5 18.3289
6 *128:ZN *34:7 0.001
7 *138:RN *34:6 16.845
8 *138:RN *34:8 0.001
9 *34:5 *34:6 35.7967
*END

*D_NET *35 1.17515

*CONN
*P *79 O *C 20.4400 4.0000
*I *106:Z O *C 20.4400 10.3600 *D gf180mcu_fd_sc_mcu7t5v0__tieh

*CAP
1 *79 *74 0.0671638
2 *79 1.10799
3 *35:3 0.0

*RES
1 *79 *35:3 3.30865
2 *106:Z *35:3 16.845
3 *106:Z *35:2 0.001
*END

*D_NET *36 1.32815

*CONN
*P *80 O *C 4.0000 57.4000
*I *107:Z O *C 10.9200 57.4000 *D gf180mcu_fd_sc_mcu7t5v0__tieh

*CAP
1 *80 *12:3 0.152787
2 *80 *69 0.0378379
3 *80 1.07305
4 *36:2 0.0644681
5 *36:3 0.0

*RES
1 *80 *36:2 20.4407
2 *107:Z *36:2 16.845
3 *107:Z *36:3 0.001
*END

*D_NET *37 1.97621

*CONN
*P *81 O *C 71.0000 23.8000
*I *108:Z O *C 63.5600 21.0000 *D gf180mcu_fd_sc_mcu7t5v0__tieh

*CAP
1 *37:2 *9:2 0.401899
2 *37:2 *75 0.000781824
3 *37:2 *32:6 0.0109231
4 *81 0.461091
5 *108:Z 0.188397
6 *37:2 0.913115
7 *37:3 0.0

*RES
1 *81 *37:2 3.86223
2 *108:Z *37:3 0.001
3 *108:Z *37:2 35.2226
*END

*D_NET *38 2.1922

*CONN
*P *82 O *C 33.8800 4.0000
*I *129:ZN O *C 34.4400 16.5200 *D gf180mcu_fd_sc_mcu7t5v0__tiel
*I *141:I I *C 34.4400 13.7200

*CAP
1 *38:4 *140:ZN 0.0929218
2 *38:4 *7:2 0.00358861
3 *38:4 *30:4 0.11424
4 *38:4 *93:I 0.529466
5 *38:4 *33:4 0.013051
6 *38:4 *45:6 0.00413183
7 *38:4 *45:8 0.00106588
8 *82 0.399336
9 *38:4 1.0344
10 *38:5 0.0

*RES
1 *82 *38:4 4.9822
2 *129:ZN *38:5 0.001
3 *129:ZN *38:4 18.3289
4 *141:I *38:4 16.845
5 *141:I *38:3 0.001
*END

*D_NET *39 1.24614

*CONN
*P *83 O *C 4.0000 43.9600
*I *109:Z O *C 10.9200 42.2800 *D gf180mcu_fd_sc_mcu7t5v0__tieh

*CAP
1 *83 *69 0.0351377
2 *83 *73 0.0116087
3 *83 0.975693
4 *39:3 0.2237

*RES
1 *83 *39:3 21.3992
2 *109:Z *39:3 16.845
3 *109:Z *39:2 0.001
*END

*D_NET *40 7.42628

*CONN
*P *84 O *C 74.2000 66.0000
*I *99:I I *C 32.7600 54.0400
*I *130:ZN O *C 38.9200 56.2800 *D gf180mcu_fd_sc_mcu7t5v0__tiel
*I *142:I I *C 36.6800 52.9200

*CAP
1 *40:5 *5:2 0.01833
2 *40:6 *5:2 0.0997257
3 *40:6 *8:2 0.0191383
4 *40:6 *60 0.729762
5 *40:6 *16:3 0.133893
6 *84 *63 0.113284
7 *40:6 *63 0.07584
8 *40:6 *22:3 0.914852
9 *84 *68 0.0973855
10 *40:6 *24:4 0.01488
11 *40:6 *71 0.0341845
12 *40:6 *76 0.00596073
13 *84 2.47581
14 *99:I 0.230184
15 *130:ZN 0.0326121
16 *142:I 0.0135409
17 *40:4 0.0919034
18 *40:5 0.737771
19 *40:6 1.58722
20 *40:9 0.0

*RES
1 *84 *40:6 41.1204
2 *99:I *40:7 0.001
3 *99:I *40:4 0.001
4 *99:I *40:5 52.6417
5 *130:ZN *40:9 0.001
6 *130:ZN *40:6 33.69
7 *142:I *40:8 0.001
8 *142:I *40:5 17.4678
9 *40:5 *40:6 19.2746
*END

*D_NET *41 10.2563

*CONN
*P *85 O *C 20.4400 66.0000
*I *91:I I *C 29.4000 33.3200
*I *105:I I *C 32.2000 33.3200
*I *131:ZN O *C 29.4000 37.8000 *D gf180mcu_fd_sc_mcu7t5v0__tiel

*CAP
1 *41:5 *61 0.831369
2 *41:5 *17:4 0.80581
3 *41:5 *23:5 0.0738556
4 *41:5 *23:7 0.0134075
5 *85 *69 0.0298785
6 *85 *25:5 1.6198
7 *85 *44:3 1.98684
8 *85 *89 0.093124
9 *85 2.73357
10 *105:I 0.205641
11 *41:4 0.876233
12 *41:5 0.986741
13 *41:8 0.0

*RES
1 *85 *41:5 57.4759
2 *91:I *41:4 16.845
3 *91:I *41:6 0.001
4 *105:I *41:4 52.0676
5 *105:I *41:8 0.001
6 *131:ZN *41:5 16.845
7 *131:ZN *41:7 0.001
8 *41:4 *41:5 2.34502
*END

*D_NET *42 4.91309

*CONN
*P *86 O *C 27.1600 66.0000
*I *132:ZN O *C 12.6000 48.4400 *D gf180mcu_fd_sc_mcu7t5v0__tiel
*I *145:A1 I *C 12.0400 53.4800

*CAP
1 *42:3 *8:2 0.350153
2 *42:3 *69 0.0599805
3 *42:3 *44:3 0.1806
4 *86 *89 0.157195
5 *86 2.40043
6 *132:ZN 0.0404018
7 *42:3 1.72433
8 *42:5 0.0

*RES
1 *86 *42:3 49.7258
2 *132:ZN *42:3 17.7061
3 *132:ZN *42:5 0.001
4 *145:A1 *42:4 0.001
5 *145:A1 *42:3 18.6159
*END

*D_NET *43 2.26635

*CONN
*P *87 O *C 47.3200 4.0000
*I *133:ZN O *C 43.4000 8.6800 *D gf180mcu_fd_sc_mcu7t5v0__tiel
*I *146:A1 I *C 42.2800 14.2800

*CAP
1 *43:3 *7:2 0.255892
2 *43:3 *57 0.095
3 *43:3 *28:4 0.00170512
4 *43:3 *33:4 0.00848171
5 *43:3 *45:8 0.0340635
6 *87 1.00949
7 *146:A1 0.0270668
8 *43:3 0.834658
9 *43:5 0.0

*RES
1 *87 *43:3 38.2442
2 *133:ZN *43:3 16.845
3 *133:ZN *43:5 0.001
4 *146:A1 *43:3 20.3216
5 *146:A1 *43:4 0.001
*END

*D_NET *44 6.86793

*CONN
*P *88 O *C 4.0000 30.5200
*I *134:ZN O *C 15.4000 53.4800 *D gf180mcu_fd_sc_mcu7t5v0__tiel
*I *145:A2 I *C 12.6000 52.9200

*CAP
1 *44:3 *8:2 0.165591
2 *44:3 *69 0.00219835
3 *44:3 *85 1.98684
4 *44:3 *42:3 0.1806
5 *88 3.23029
6 *134:ZN 0.0398807
7 *145:A2 0.0854443
8 *44:3 1.17708
9 *44:5 0.0

*RES
1 *88 *44:3 53.7931
2 *134:ZN *44:3 33.69
3 *134:ZN *44:5 0.001
4 *145:A2 *44:3 35.5583
5 *145:A2 *44:4 0.001
*END

*D_NET *45 13.0854

*CONN
*P *89 O *C 4.0000 64.1200
*I *102:I I *C 40.0400 10.3600
*I *135:ZN O *C 37.2400 9.2400 *D gf180mcu_fd_sc_mcu7t5v0__tiel
*I *146:A2 I *C 39.4800 13.7200

*CAP
1 *45:6 *3:2 0.749181
2 *45:6 *6:2 0.0177024
3 *45:6 *7:2 0.0516538
4 *45:8 *7:2 0.0110644
5 *45:8 *57 0.470455
6 *89 *23:5 0.860272
7 *89 *69 0.135534
8 *89 *73 0.115207
9 *45:6 *30:5 0.00254259
10 *45:8 *30:5 0.00183807
11 *45:6 *31:4 0.0384754
12 *89 *33:4 0.00257184
13 *45:6 *33:4 0.313671
14 *45:6 *34:5 0.0270343
15 *45:6 *38:4 0.00413183
16 *45:8 *38:4 0.00106588
17 *89 *85 0.093124
18 *89 *86 0.157195
19 *45:8 *43:3 0.0340635
20 *89 *46:4 0.0182917
21 *89 5.58222
22 *135:ZN 0.387041
23 *45:6 3.56934
24 *45:8 0.441714

*RES
1 *89 *45:6 94.8468
2 *102:I *45:8 16.845
3 *102:I *45:7 0.001
4 *135:ZN *45:8 52.6904
5 *135:ZN *45:4 0.001
6 *146:A2 *45:6 16.845
7 *146:A2 *45:5 0.001
8 *45:6 *45:8 1.72224
*END

*D_NET *46 10.4279

*CONN
*P *90 O *C 71.0000 30.5200
*I *103:I I *C 21.5600 18.2000
*I *136:ZN O *C 17.0800 22.6800 *D gf180mcu_fd_sc_mcu7t5v0__tiel
*I *147:A1 I *C 14.2800 17.6400

*CAP
1 *46:4 *3:2 0.102575
2 *46:5 *3:2 0.428649
3 *90 *9:2 0.0896341
4 *46:4 *62 0.308919