*SPEF "IEEE 1481-1999"
*DESIGN "spare_logic_block"
*DATE "Tue Dec  6 02:12:23 2022"
*VENDOR "Synopsys Inc."
*PROGRAM "StarRC"
*VERSION "T-2022.03-SP3"
*DESIGN_FLOW "PIN_CAP NONE" "NAME_SCOPE LOCAL"
*DIVIDER /
*DELIMITER :
*BUS_DELIMITER []
*T_UNIT 1.0 NS
*C_UNIT 1.0 FF
*R_UNIT 1.0 OHM
*L_UNIT 1.0 HENRY

// COMMENTS

// CORNER_NAME 
// OPERATING_TEMPERATURE 125
// GLOBAL_TEMPERATURE 25
// TCAD_GRD_FILE /home/passant/caravel-gf180mcu/scripts/gf180-tech/gf180mcu_1p5m_1tm_9k_sp_smim_OPTB_wst.nxtgrd
//   TCAD_TIME_STAMP Tue Dec 26 17:57:55 2017
//   TCADGRD_VERSION 75
// galaxy_comments_begin
//   local_nodeid
// galaxy_comments_end

*NAME_MAP
*47 spare_xfq[0]
*48 spare_xfq[1]
*49 spare_xi[0]
*50 spare_xi[1]
*51 spare_xi[2]
*52 spare_xi[3]
*53 spare_xib
*54 spare_xmx[0]
*55 spare_xmx[1]
*56 spare_xna[0]
*57 spare_xna[1]
*58 spare_xno[0]
*59 spare_xno[1]
*60 spare_xz[0]
*61 spare_xz[10]
*62 spare_xz[11]
*63 spare_xz[12]
*64 spare_xz[13]
*65 spare_xz[14]
*66 spare_xz[15]
*67 spare_xz[16]
*68 spare_xz[17]
*69 spare_xz[18]
*70 spare_xz[19]
*71 spare_xz[1]
*72 spare_xz[20]
*73 spare_xz[21]
*74 spare_xz[22]
*75 spare_xz[23]
*76 spare_xz[24]
*77 spare_xz[25]
*78 spare_xz[26]
*79 spare_xz[27]
*80 spare_xz[28]
*81 spare_xz[29]
*82 spare_xz[2]
*83 spare_xz[30]
*84 spare_xz[3]
*85 spare_xz[4]
*86 spare_xz[5]
*87 spare_xz[6]
*88 spare_xz[7]
*89 spare_xz[8]
*90 spare_xz[9]
*91 ANTENNA_spare_logic_biginv_I
*92 ANTENNA_spare_logic_flop\[0\]_CLK
*93 ANTENNA_spare_logic_flop\[0\]_RN
*94 ANTENNA_spare_logic_flop\[0\]_SETN
*95 ANTENNA_spare_logic_flop\[1\]_CLK
*96 ANTENNA_spare_logic_flop\[1\]_D
*97 ANTENNA_spare_logic_flop\[1\]_RN
*98 ANTENNA_spare_logic_flop\[1\]_SETN
*99 ANTENNA_spare_logic_inv\[3\]_I
*100 ANTENNA_spare_logic_mux\[1\]_I1
*101 ANTENNA_spare_logic_mux\[1\]_S
*102 ANTENNA_spare_logic_nand\[1\]_A2
*103 ANTENNA_spare_logic_nor\[0\]_A1
*104 ANTENNA_spare_logic_nor\[1\]_A1
*105 spare_logic_biginv
*106 spare_logic_const_one[0]
*107 spare_logic_const_one[1]
*108 spare_logic_const_one[2]
*109 spare_logic_const_one[3]
*110 spare_logic_const_zero[0]
*111 spare_logic_const_zero[10]
*112 spare_logic_const_zero[11]
*113 spare_logic_const_zero[12]
*114 spare_logic_const_zero[13]
*115 spare_logic_const_zero[14]
*116 spare_logic_const_zero[15]
*117 spare_logic_const_zero[16]
*118 spare_logic_const_zero[17]
*119 spare_logic_const_zero[18]
*120 spare_logic_const_zero[19]
*121 spare_logic_const_zero[1]
*122 spare_logic_const_zero[20]
*123 spare_logic_const_zero[21]
*124 spare_logic_const_zero[22]
*125 spare_logic_const_zero[23]
*126 spare_logic_const_zero[24]
*127 spare_logic_const_zero[25]
*128 spare_logic_const_zero[26]
*129 spare_logic_const_zero[2]
*130 spare_logic_const_zero[3]
*131 spare_logic_const_zero[4]
*132 spare_logic_const_zero[5]
*133 spare_logic_const_zero[6]
*134 spare_logic_const_zero[7]
*135 spare_logic_const_zero[8]
*136 spare_logic_const_zero[9]
*137 spare_logic_flop[0]
*138 spare_logic_flop[1]
*139 spare_logic_inv[0]
*140 spare_logic_inv[1]
*141 spare_logic_inv[2]
*142 spare_logic_inv[3]
*143 spare_logic_mux[0]
*144 spare_logic_mux[1]
*145 spare_logic_nand[0]
*146 spare_logic_nand[1]
*147 spare_logic_nor[0]
*148 spare_logic_nor[1]
*3 spare_xfq[0]
*4 spare_xfq[1]
*5 spare_xi[0]
*6 spare_xi[1]
*7 spare_xi[2]
*8 spare_xi[3]
*9 spare_xib
*10 spare_xmx[0]
*11 spare_xmx[1]
*12 spare_xna[0]
*13 spare_xna[1]
*14 spare_xno[0]
*15 spare_xno[1]
*16 spare_xz[0]
*17 spare_xz[10]
*18 spare_xz[11]
*19 spare_xz[12]
*20 spare_xz[13]
*21 spare_xz[14]
*22 spare_xz[15]
*23 spare_xz[16]
*24 spare_xz[17]
*25 spare_xz[18]
*26 spare_xz[19]
*27 spare_xz[1]
*28 spare_xz[20]
*29 spare_xz[21]
*30 spare_xz[22]
*31 spare_xz[23]
*32 spare_xz[24]
*33 spare_xz[25]
*34 spare_xz[26]
*35 spare_xz[27]
*36 spare_xz[28]
*37 spare_xz[29]
*38 spare_xz[2]
*39 spare_xz[30]
*40 spare_xz[3]
*41 spare_xz[4]
*42 spare_xz[5]
*43 spare_xz[6]
*44 spare_xz[7]
*45 spare_xz[8]
*46 spare_xz[9]

*PORTS

*47 O
*48 O
*49 O
*50 O
*51 O
*52 O
*53 O
*54 O
*55 O
*56 O
*57 O
*58 O
*59 O
*60 O
*61 O
*62 O
*63 O
*64 O
*65 O
*66 O
*67 O
*68 O
*69 O
*70 O
*71 O
*72 O
*73 O
*74 O
*75 O
*76 O
*77 O
*78 O
*79 O
*80 O
*81 O
*82 O
*83 O
*84 O
*85 O
*86 O
*87 O
*88 O
*89 O
*90 O

*D_NET *3 5.90356

*CONN
*P *47 O *C 4.0000 23.8000
*I *137:Q O *C 29.4000 14.2800 *D gf180mcu_fd_sc_mcu7t5v0__dffrsnq_2

*CAP
1 *3:2 *62 0.0899731
2 *3:2 *67 0.0424768
3 *47 *29:5 0.154903
4 *47 *29:6 0.080945
5 *3:2 *30:4 0.00608968
6 *3:2 *31:4 0.811899
7 *3:2 *33:4 0.00743627
8 *3:2 *45:6 0.749303
9 *3:2 *46:4 0.102785
10 *3:2 *46:5 0.428669
11 *47 1.56299
12 *137:Q 0.779006
13 *3:2 1.08708
14 *3:3 0.0

*RES
1 *47 *3:2 28.8622
2 *137:Q *3:2 56.6602
3 *137:Q *3:3 0.001
*END

*D_NET *4 4.02059

*CONN
*P *48 O *C 67.4800 4.0000
*I *138:Q O *C 60.2000 17.6400 *D gf180mcu_fd_sc_mcu7t5v0__dffrsnq_2

*CAP
1 *48 *9:2 0.122184
2 *4:2 *28:4 0.34721
3 *4:2 *75 0.11953
4 *48 *32:6 0.00190779
5 *4:2 *32:6 0.0708392
6 *48 *77 0.742786
7 *4:2 *77 0.294949
8 *48 *34:6 0.0037359
9 *4:2 *34:6 0.00682516
10 *48 1.86677
11 *4:2 0.443857
12 *4:3 0.0

*RES
1 *48 *4:2 44.5591
2 *138:Q *4:2 16.845
3 *138:Q *4:3 0.001
*END

*D_NET *5 3.71293

*CONN
*P *49 O *C 33.8800 66.0000
*I *139:ZN O *C 40.0400 52.3600 *D gf180mcu_fd_sc_mcu7t5v0__inv_2

*CAP
1 *5:2 *8:2 0.287345
2 *5:2 *11:2 0.59804
3 *5:2 *16:3 0.0717881
4 *5:2 *71 0.209221
5 *5:2 *40:5 0.01833
6 *5:2 *40:6 0.0998319
7 *49 0.398973
8 *139:ZN 0.573106
9 *5:2 1.45629
10 *5:3 0.0

*RES
1 *49 *5:2 7.04017
2 *139:ZN *5:3 0.001
3 *139:ZN *5:2 53.7898
*END

*D_NET *6 6.59675

*CONN
*P *50 O *C 27.1600 4.0000
*I *140:ZN O *C 35.0000 28.8400 *D gf180mcu_fd_sc_mcu7t5v0__inv_2

*CAP
1 *6:2 *23:5 0.030989
2 *50 *74 0.00502948
3 *140:ZN *30:4 0.00280314
4 *140:ZN *30:5 0.00455786
5 *6:2 *74 0.0759403
6 *6:2 *30:4 0.000646102
7 *6:2 *30:5 0.491906
8 *140:ZN *31:4 0.0211386
9 *6:2 *31:4 1.02481
10 *140:ZN *93:I 0.0242396
11 *6:2 *33:4 1.11331
12 *6:2 *34:5 0.101112
13 *140:ZN *38:4 0.0929218
14 *6:2 *45:6 0.0177513
15 *50 0.404279
16 *140:ZN 1.64526
17 *6:2 1.54005
18 *6:4 0.0

*RES
1 *50 *6:2 3.25996
2 *140:ZN *6:2 63.9823
3 *140:ZN *6:4 0.001
4 *140:ZN *6:3 0.001
*END

*D_NET *7 4.51162

*CONN
*P *51 O *C 71.0000 10.3600
*I *141:ZN O *C 36.1200 13.1600 *D gf180mcu_fd_sc_mcu7t5v0__inv_2

*CAP
1 *7:2 *57 0.0430205
2 *7:2 *59 0.0182314
3 *7:2 *75 0.0035865
4 *7:2 *93:I 0.0649196
5 *7:2 *33:4 0.0316061
6 *7:2 *38:4 0.00359498
7 *7:2 *43:3 0.255937
8 *7:2 *45:6 0.0516924
9 *7:2 *45:8 0.0110897
10 *51 0.479904
11 *141:ZN 0.323517
12 *7:2 3.22452
13 *7:4 0.0

*RES
1 *51 *7:2 4.68491
2 *141:ZN *7:4 0.001
3 *141:ZN *7:3 0.001
4 *141:ZN *7:2 48.4649
*END

*D_NET *8 4.12758

*CONN
*P *52 O *C 4.0000 50.6800
*I *142:ZN O *C 35.0000 52.3600 *D gf180mcu_fd_sc_mcu7t5v0__inv_2

*CAP
1 *8:2 *5:2 0.287345
2 *8:2 *144:Z 0.0503391
3 *8:2 *11:2 0.0475026
4 *8:2 *12:3 0.220002
5 *8:2 *69 0.0111298
6 *8:2 *73 0.0135983
7 *8:2 *40:6 0.019178
8 *8:2 *42:3 0.350531
9 *8:2 *44:3 0.165771
10 *52 0.450258
11 *142:ZN 0.0631695
12 *8:2 2.44876
13 *8:4 0.0

*RES
1 *52 *8:2 11.4303
2 *142:ZN *8:4 0.001
3 *142:ZN *8:2 39.1566
4 *142:ZN *8:3 0.001
*END

*D_NET *9 7.90831

*CONN
*P *53 O *C 71.0000 3.6400
*I *105:ZN O *C 43.9575 34.0350 *D gf180mcu_fd_sc_mcu7t5v0__inv_12

*CAP
1 *9:2 *48 0.122184
2 *9:2 *17:4 0.123745
3 *9:2 *21:3 0.114244
4 *9:2 *28:5 0.000905619
5 *9:2 *75 0.0542041
6 *9:2 *32:6 0.47831
7 *9:2 *34:6 0.01833
8 *9:2 *37:2 0.401928
9 *9:2 *90 0.0897843
10 *53 0.913017
11 *105:ZN 0.0734036
12 *9:2 4.24502
13 *9:3 0.0873655
14 *9:5 1.18587
15 *9:7 0.0

*RES
1 *53 *9:2 30.6486
2 *105:ZN *9:5 0.001
3 *105:ZN *9:6 0.001
4 *105:ZN *9:7 18.4184
5 *9:2 *9:5 66.1889
6 *9:3 *9:6 0.001
7 *9:3 *9:7 0.722666
8 *9:4 *9:5 0.001
*END

*D_NET *10 5.52361

*CONN
*P *54 O *C 74.2000 4.0000
*I *143:Z O *C 65.8000 51.8000 *D gf180mcu_fd_sc_mcu7t5v0__mux2_2

*CAP
1 *143:Z *11:2 0.138401
2 *10:2 *11:2 0.109021
3 *143:Z *63 0.046857
4 *54 1.26907
5 *143:Z 0.357881
6 *10:2 3.60239
7 *10:3 0.0

*RES
1 *54 *10:2 20.3183
2 *143:Z *10:3 0.001
3 *143:Z *10:2 59.4695
*END

*D_NET *11 8.38212

*CONN
*P *55 O *C 71.0000 50.6800
*I *144:Z O *C 35.0000 41.7200 *D gf180mcu_fd_sc_mcu7t5v0__mux2_2

*CAP
1 *11:2 *5:2 0.59804
2 *144:Z *8:2 0.0503391
3 *11:2 *8:2 0.0475026
4 *11:2 *143:Z 0.138401
5 *11:2 *10:2 0.109021
6 *11:2 *16:3 2.04988
7 *11:2 *63 0.0762844
8 *11:2 *19:3 0.0166315
9 *11:2 *20:3 0.73565
10 *11:2 *22:3 0.00465869
11 *144:Z *23:7 0.0162694
12 *144:Z *25:6 0.00106407
13 *144:Z *71 0.0299622
14 *11:2 *32:4 0.0109742
15 *55 0.415762
16 *144:Z 1.06008
17 *11:2 3.0216
18 *11:3 0.0

*RES
1 *55 *11:2 7.25802
2 *144:Z *11:2 50.6254
3 *144:Z *11:3 0.001
*END

*D_NET *12 3.01622

*CONN
*P *56 O *C 0.2800 66.0000
*I *145:ZN O *C 9.8000 54.0400 *D gf180mcu_fd_sc_mcu7t5v0__nand2_2

*CAP
1 *12:3 *8:2 0.220002
2 *12:3 *69 0.186328
3 *56 *73 0.0324609
4 *12:3 *73 0.576633
5 *12:3 *80 0.15322
6 *56 0.398973
7 *145:ZN 0.389349
8 *12:3 1.05926
9 *12:4 0.0

*RES
1 *56 *12:3 6.17905
2 *145:ZN *12:3 55.5121
3 *145:ZN *12:4 0.001
4 *145:ZN *12:2 0.001
*END

*D_NET *13 1.78741

*CONN
*P *57 O *C 40.6000 4.0000
*I *146:ZN O *C 40.6000 13.1600 *D gf180mcu_fd_sc_mcu7t5v0__nand2_2

*CAP
1 *57 *7:2 0.0430205
2 *57 *43:3 0.095039
3 *57 *45:8 0.470486
4 *57 1.17887
5 *13:3 0.0

*RES
1 *57 *13:3 4.74385
2 *146:ZN *13:3 16.845
3 *146:ZN *13:2 0.001
*END

*D_NET *14 1.21171

*CONN
*P *58 O *C 4.0000 17.0800
*I *147:ZN O *C 11.4800 17.0800 *D gf180mcu_fd_sc_mcu7t5v0__nor2_2

*CAP
1 *58 *62 0.0115404
2 *58 *137:CLK 0.0126305
3 *58 *29:5 0.122668
4 *58 *34:5 0.164595
5 *58 0.804558
6 *14:2 0.0957162
7 *14:3 0.0

*RES
1 *58 *14:2 20.7277
2 *147:ZN *14:2 16.845
3 *147:ZN *14:3 0.001
*END

*D_NET *15 6.79127

*CONN
*P *59 O *C 54.0400 4.0000
*I *148:ZN O *C 55.1275 35.9450 *D gf180mcu_fd_sc_mcu7t5v0__nor2_2

*CAP
1 *59 *7:2 0.0182314
2 *15:2 *19:3 0.0388115
3 *15:2 *32:4 1.6672
4 *15:2 *32:6 0.605857
5 *15:2 *34:6 0.497475
6 *59 1.0498
7 *15:2 2.91389
8 *15:9 0.0

*RES
1 *59 *15:2 14.3007
2 *148:ZN *15:3 0.001
3 *148:ZN *15:7 0.001
4 *15:2 *15:5 19.6308
5 *15:4 *15:5 0.001
6 *15:5 *15:7 0.001
7 *15:6 *15:7 0.001
8 *15:7 *15:9 0.001
9 *15:7 *15:8 0.001
*END

*D_NET *16 7.51534

*CONN
*P *60 O *C 71.0000 57.4000
*I *110:ZN O *C 40.0400 48.4400 *D gf180mcu_fd_sc_mcu7t5v0__tiel
*I *139:I I *C 41.1600 52.9200

*CAP
1 *16:3 *5:2 0.0717881
2 *16:3 *11:2 2.04988
3 *60 *63 0.00503779
4 *60 *19:3 0.0140353
5 *60 *20:3 0.00262188
6 *16:3 *20:3 0.0173614
7 *60 *22:3 0.268969
8 *60 *24:4 0.0020548
9 *16:3 *71 0.174051
10 *60 *32:4 0.750474
11 *60 *40:6 0.730132
12 *16:3 *40:6 0.134394
13 *60 1.87079
14 *110:ZN 0.0680732
15 *16:3 1.35568
16 *16:5 0.0

*RES
1 *60 *16:3 68.657
2 *110:ZN *16:4 0.001
3 *110:ZN *16:3 19.3566
4 *139:I *16:5 0.001
5 *139:I *16:3 17.1807
*END

*D_NET *17 9.02753

*CONN
*P *61 O *C 4.0000 37.2400
*I *104:I I *C 50.6800 33.8800
*I *111:ZN O *C 48.4400 37.8000 *D gf180mcu_fd_sc_mcu7t5v0__tiel
*I *148:A1 I *C 52.9200 37.2400

*CAP
1 *17:4 *9:2 0.123745
2 *104:I *19:3 0.00244545
3 *104:I *21:3 0.00489956
4 *17:4 *21:3 0.669731
5 *17:4 *23:5 1.11423
6 *17:4 *23:7 0.00674366
7 *61 *25:5 0.453529
8 *17:4 *25:5 0.411338
9 *17:4 *25:6 0.0317023
10 *104:I *28:5 0.0312032
11 *17:4 *28:5 0.0949623
12 *61 *41:5 0.831453
13 *17:4 *85 0.805926
14 *61 1.11612
15 *104:I 0.200116
16 *111:ZN 0.0898687
17 *148:A1 0.102777
18 *17:4 2.55955
19 *17:5 0.377191
20 *17:8 0.0

*RES
1 *61 *17:4 22.7787
2 *104:I *17:5 35.2226
3 *104:I *17:7 0.001
4 *111:ZN *17:4 34.0744
5 *111:ZN *17:6 0.001
6 *148:A1 *17:5 35.2713
7 *148:A1 *17:8 0.001
8 *17:4 *17:5 1.4352
*END

*D_NET *18 2.84598

*CONN
*P *62 O *C 13.7200 4.0000
*I *112:ZN O *C 18.2000 16.5200 *D gf180mcu_fd_sc_mcu7t5v0__tiel
*I *147:A2 I *C 13.7200 18.2000

*CAP
1 *62 *3:2 0.0899731
2 *62 *58 0.0115404
3 *62 *26:3 0.0458559
4 *62 *34:5 0.033264
5 *62 *46:4 0.309042
6 *62 2.06039
7 *112:ZN 0.113916
8 *18:3 0.181997
9 *18:5 0.0

*RES
1 *62 *18:3 6.4174
2 *112:ZN *18:5 0.001
3 *112:ZN *18:3 52.9287
4 *147:A2 *18:4 0.001
5 *147:A2 *18:3 17.7548
*END

*D_NET *19 6.61924

*CONN
*P *63 O *C 67.4800 66.0000
*I *113:ZN O *C 56.8400 40.0400 *D gf180mcu_fd_sc_mcu7t5v0__tiel
*I *148:A2 I *C 55.1600 37.2400

*CAP
1 *63 *143:Z 0.046857
2 *63 *11:2 0.0762844
3 *19:3 *11:2 0.0166315
4 *19:3 *15:2 0.0388115
5 *63 *60 0.00503779
6 *19:3 *60 0.0140353
7 *19:3 *104:I 0.00244545
8 *63 *20:3 0.00179131
9 *19:3 *20:3 0.721273
10 *19:3 *21:3 0.0880838
11 *63 *66 0.0103934
12 *63 *22:3 0.0736215
13 *19:3 *22:3 0.00300217
14 *19:3 *24:4 0.00169655
15 *19:3 *72 0.0578561
16 *19:3 *32:4 0.491037
17 *63 *84 0.113415
18 *63 *40:6 0.0759941
19 *63 2.41637
20 *113:ZN 0.0378191
21 *148:A2 0.227128
22 *19:3 2.09966
23 *19:5 0.0

*RES
1 *63 *19:3 69.5873
2 *113:ZN *19:3 33.69
3 *113:ZN *19:5 0.001
4 *148:A2 *19:3 36.1324
5 *148:A2 *19:4 0.001
*END

*D_NET *20 5.64822

*CONN
*P *64 O *C 47.3200 66.0000
*I *114:ZN O *C 60.7600 48.4400 *D gf180mcu_fd_sc_mcu7t5v0__tiel
*I *143:I0 I *C 60.2000 53.4800

*CAP
1 *20:3 *11:2 0.73565
2 *20:3 *60 0.00262188
3 *20:3 *16:3 0.0173614
4 *20:3 *63 0.00179131
5 *20:3 *19:3 0.721273
6 *20:3 *24:4 0.0069614
7 *64 3.03143
8 *114:ZN 0.0587569
9 *20:3 1.07238
10 *20:5 0.0

*RES
1 *64 *20:3 48.5777
2 *114:ZN *20:3 17.7061
3 *114:ZN *20:5 0.001
4 *143:I0 *20:4 0.001
5 *143:I0 *20:3 18.6159
*END

*D_NET *21 4.6459

*CONN
*P *65 O *C 71.0000 37.2400
*I *115:ZN O *C 42.8400 38.3600 *D gf180mcu_fd_sc_mcu7t5v0__tiel
*I *144:I0 I *C 40.6000 40.6000

*CAP
1 *21:3 *9:2 0.114244
2 *21:3 *104:I 0.00489956
3 *21:3 *17:4 0.669731
4 *21:3 *19:3 0.0880838
5 *21:3 *25:5 0.00193089
6 *21:3 *25:6 0.0887133
7 *21:3 *71 0.105019
8 *65 1.7155
9 *115:ZN 0.0500692
10 *144:I0 0.153646
11 *21:3 1.65406
12 *21:5 0.0

*RES
1 *65 *21:3 15.0081
2 *115:ZN *21:5 0.001
3 *115:ZN *21:3 33.69
4 *144:I0 *21:4 0.001
5 *144:I0 *21:3 36.1324
*END

*D_NET *22 4.15489

*CONN
*P *66 O *C 60.7600 66.0000
*I *116:ZN O *C 56.8400 54.0400 *D gf180mcu_fd_sc_mcu7t5v0__tiel
*I *143:I1 I *C 64.1200 52.9200

*CAP
1 *22:3 *11:2 0.00465869
2 *22:3 *60 0.268969
3 *66 *63 0.0103934
4 *22:3 *63 0.0736215
5 *22:3 *19:3 0.00300217
6 *66 *24:4 0.326527
7 *22:3 *24:4 0.00313513
8 *22:3 *32:4 0.0168075
9 *22:3 *40:6 0.914943
10 *66 1.06527
11 *116:ZN 0.246255
12 *143:I1 0.195746
13 *22:3 1.02556
14 *22:5 0.0

*RES
1 *66 *22:3 22.1629
2 *116:ZN *22:3 36.7065
3 *116:ZN *22:4 0.001
4 *143:I1 *22:3 36.9935
5 *143:I1 *22:5 0.001
*END

*D_NET *23 10.1988

*CONN
*P *67 O *C 4.0000 10.3600
*I *100:I I *C 31.6400 40.0400
*I *117:ZN O *C 32.7600 37.8000 *D gf180mcu_fd_sc_mcu7t5v0__tiel
*I *144:I1 I *C 36.6800 41.1600

*CAP
1 *67 *3:2 0.0424768
2 *23:5 *6:2 0.030989
3 *23:7 *144:Z 0.0162694
4 *23:5 *17:4 1.11423
5 *23:7 *17:4 0.00674366
6 *23:5 *25:5 0.0165792
7 *23:7 *25:5 0.0831634
8 *23:7 *25:6 0.0590964
9 *67 *70 0.391136
10 *23:7 *71 0.00175288
11 *23:5 *29:6 0.0238401
12 *67 *74 0.0383009
13 *67 *31:4 0.021447
14 *23:5 *31:4 0.00882421
15 *23:5 *33:4 0.448898
16 *23:5 *41:5 0.0739671
17 *23:7 *41:5 0.0134083
18 *23:5 *89 0.860473
19 *67 3.47213
20 *117:ZN 0.131298
21 *144:I1 0.290071
22 *23:4 0.0861458
23 *23:5 2.05613
24 *23:7 0.911459
25 *23:9 0.0

*RES
1 *67 *23:5 61.5431
2 *100:I *23:7 16.845
3 *100:I *23:6 0.001
4 *100:I *23:4 0.001
5 *117:ZN *23:8 0.001
6 *117:ZN *23:5 34.9843
7 *144:I1 *23:9 0.001
8 *144:I1 *23:7 53.8385
9 *23:5 *23:7 18.6159
*END

*D_NET *24 2.69564

*CONN
*P *68 O *C 71.0000 64.1200
*I *118:ZN O *C 62.4400 56.2800 *D gf180mcu_fd_sc_mcu7t5v0__tiel
*I *143:S I *C 63.0000 53.4800

*CAP
1 *24:4 *60 0.0020548
2 *24:4 *19:3 0.00169655
3 *24:4 *20:3 0.0069614
4 *24:4 *66 0.326527
5 *24:4 *22:3 0.00313513
6 *68 *84 0.0974597
7 *24:4 *40:6 0.0148832
8 *68 0.840942
9 *143:S 0.0451261
10 *24:4 1.35686
11 *24:5 0.0

*RES
1 *68 *24:4 25.3486
2 *118:ZN *24:4 16.845
3 *118:ZN *24:3 0.001
4 *143:S *24:5 0.001
5 *143:S *24:4 18.3289
*END

*D_NET *25 10.1506

*CONN
*P *69 O *C 13.7200 66.0000
*I *101:I I *C 43.4000 40.0400
*I *119:ZN O *C 35.5600 38.3600 *D gf180mcu_fd_sc_mcu7t5v0__tiel
*I *144:S I *C 37.8000 40.6000

*CAP
1 *69 *8:2 0.0111298
2 *25:6 *144:Z 0.00106407
3 *69 *12:3 0.186328
4 *25:5 *61 0.453529
5 *25:5 *17:4 0.411338
6 *25:6 *17:4 0.0317023
7 *25:5 *21:3 0.00193089
8 *25:6 *21:3 0.0887133
9 *25:5 *23:5 0.0165792
10 *25:5 *23:7 0.0831634
11 *25:6 *23:7 0.0590964
12 *25:6 *71 0.0500578
13 *69 *73 0.0630605
14 *69 *80 0.0378511
15 *69 *83 0.0351489
16 *69 *85 0.0299134
17 *25:5 *85 1.62002
18 *69 *42:3 0.0600684
19 *69 *44:3 0.00220384
20 *69 *89 0.135654
21 *69 3.56205
22 *101:I 0.340217
23 *119:ZN 0.0302952
24 *25:4 0.0868474
25 *25:5 2.06241
26 *25:6 0.690228
27 *25:9 0.0

*RES
1 *69 *25:5 47.8992
2 *101:I *25:6 53.5028
3 *101:I *25:9 0.001
4 *101:I *25:4 0.001
5 *119:ZN *25:5 33.69
6 *119:ZN *25:7 0.001
7 *144:S *25:8 0.001
8 *144:S *25:6 17.1807
9 *25:5 *25:6 18.9517
*END

*D_NET *26 2.68621

*CONN
*P *70 O *C 0.2800 4.0000
*I *120:ZN O *C 10.9200 8.6800 *D gf180mcu_fd_sc_mcu7t5v0__tiel
*I *137:D I *C 10.9200 13.7200

*CAP
1 *26:3 *62 0.0458559
2 *70 *67 0.391136
3 *26:3 *137:CLK 0.0189073
4 *26:3 *78 0.0185488
5 *70 1.09445
6 *26:3 1.11731
7 *26:5 0.0

*RES
1 *70 *26:3 41.6887
2 *120:ZN *26:3 16.845
3 *120:ZN *26:4 0.001
4 *137:D *26:5 0.001
5 *137:D *26:3 19.4771
*END

*D_NET *27 5.71943

*CONN
*P *71 O *C 40.6000 66.0000
*I *121:ZN O *C 39.4800 37.8000 *D gf180mcu_fd_sc_mcu7t5v0__tiel
*I *140:I I *C 36.6800 29.4000

*CAP
1 *71 *5:2 0.209221
2 *71 *144:Z 0.0299622
3 *71 *16:3 0.174051
4 *71 *21:3 0.105019
5 *71 *23:7 0.00175288
6 *71 *25:6 0.0500578
7 *71 *40:6 0.0342042
8 *71 1.92767
9 *140:I 0.0681831
10 *27:3 3.11931
11 *27:5 0.0

*RES
1 *71 *27:3 15.0645
2 *121:ZN *27:5 0.001
3 *121:ZN *27:3 16.845
4 *140:I *27:3 22.4782
5 *140:I *27:4 0.001
*END

*D_NET *28 12.1633

*CONN
*P *72 O *C 71.0000 43.9600
*I *96:I I *C 63.0000 18.2000
*I *122:ZN O *C 47.8800 14.8400 *D gf180mcu_fd_sc_mcu7t5v0__tiel
*I *138:D I *C 42.2800 17.6400

*CAP
1 *28:4 *4:2 0.34721
2 *28:5 *9:2 0.000905619
3 *28:5 *104:I 0.0312032
4 *28:5 *17:4 0.0949623
5 *72 *19:3 0.0578561
6 *28:4 *30:5 0.0136866
7 *28:4 *75 0.000516143
8 *28:4 *31:5 0.0751258
9 *28:4 *32:6 1.3815
10 *28:4 *77 1.10056
11 *28:4 *33:4 0.0338416
12 *28:4 *34:5 1.4537
13 *28:4 *34:6 0.00640148
14 *28:5 *34:6 0.0127768
15 *28:4 *43:3 0.00170575
16 *28:5 *90 0.0747717
17 *72 3.45193
18 *96:I 0.0540731
19 *138:D 0.0685882
20 *28:4 0.809008
21 *28:5 3.093
22 *28:8 0.0

*RES
1 *72 *28:5 42.1379
2 *96:I *28:4 41.7758
3 *96:I *28:8 0.001
4 *122:ZN *28:5 18.3289
5 *122:ZN *28:7 0.001
6 *138:D *28:4 36.6091
7 *138:D *28:6 0.001
8 *28:4 *28:5 16.845
*END

*D_NET *29 10.3505

*CONN
*P *73 O *C 7.0000 66.0000
*I *92:I I *C 27.1600 18.2000
*I *123:ZN O *C 11.4800 22.1200 *D gf180mcu_fd_sc_mcu7t5v0__tiel
*I *137:CLK I *C 9.2400 13.7200

*CAP
1 *29:5 *47 0.154903
2 *29:6 *47 0.080945
3 *73 *8:2 0.0135983
4 *73 *56 0.0324609
5 *73 *12:3 0.576633
6 *137:CLK *58 0.0126305
7 *29:5 *58 0.122668
8 *29:6 *23:5 0.0238401
9 *73 *69 0.0630605
10 *137:CLK *26:3 0.0189073
11 *29:6 *31:4 0.115519
12 *29:6 *31:5 0.0485309
13 *29:6 *33:4 0.00458715
14 *137:CLK *78 0.0634103
15 *29:5 *34:5 0.117215
16 *29:6 *34:5 0.455765
17 *73 *83 0.0116195
18 *73 *89 0.115327
19 *29:6 *46:4 0.0192863
20 *73 3.73026
21 *92:I 0.250694
22 *123:ZN 0.159392
23 *137:CLK 0.48881
24 *29:5 1.90561
25 *29:6 1.76485
26 *29:9 0.0

*RES
1 *73 *29:5 49.4804
2 *92:I *29:9 0.001
3 *92:I *29:6 42.9855
4 *123:ZN *29:8 0.001
5 *123:ZN *29:6 34.6485
6 *137:CLK *29:7 0.001
7 *137:CLK *29:4 0.001
8 *137:CLK *29:5 37.2319
9 *29:5 *29:6 1.18404
*END

*D_NET *30 6.90944

*CONN
*P *74 O *C 4.0000 3.6400
*I *95:I I *C 38.3600 21.0000
*I *124:ZN O *C 31.6400 8.6800 *D gf180mcu_fd_sc_mcu7t5v0__tiel
*I *138:CLK I *C 39.4800 17.6400

*CAP
1 *30:4 *3:2 0.00608968
2 *74 *50 0.00502948
3 *30:4 *140:ZN 0.00280314
4 *30:5 *140:ZN 0.00455786
5 *74 *6:2 0.0759403
6 *30:4 *6:2 0.000646102
7 *30:5 *6:2 0.491906
8 *74 *67 0.0383009
9 *30:5 *28:4 0.0136866
10 *74 *31:4 0.0412942
11 *30:4 *31:4 0.0182938
12 *30:5 *31:5 0.0686499
13 *30:4 *93:I 0.00555215
14 *30:4 *33:4 0.0153922
15 *30:5 *33:4 0.217812
16 *30:5 *34:5 0.422901
17 *74 *79 0.0672436
18 *30:4 *38:4 0.114366
19 *30:5 *45:6 0.00255466
20 *30:5 *45:8 0.00183809
21 *74 2.44408
22 *95:I 0.0188449
23 *30:4 2.58567
24 *30:5 0.245984
25 *30:8 0.0

*RES
1 *74 *30:4 67.5293
2 *95:I *30:7 0.001
3 *95:I *30:5 19.19
4 *124:ZN *30:4 16.845
5 *124:ZN *30:6 0.001
6 *138:CLK *30:5 16.845
7 *138:CLK *30:8 0.001
8 *30:4 *30:5 42.4473
*END

*D_NET *31 10.3769

*CONN
*P *75 O *C 60.7600 4.0000
*I *94:I I *C 32.7600 21.0000
*I *125:ZN O *C 28.2800 9.2400 *D gf180mcu_fd_sc_mcu7t5v0__tiel
*I *137:SETN I *C 23.2400 13.7200

*CAP
1 *31:4 *3:2 0.811899
2 *75 *4:2 0.11953
3 *31:4 *140:ZN 0.0211386
4 *31:4 *6:2 1.02481
5 *75 *7:2 0.0035865
6 *75 *9:2 0.0542041
7 *31:4 *67 0.021447
8 *31:4 *23:5 0.00882421
9 *75 *28:4 0.000516143
10 *31:5 *28:4 0.0751258
11 *31:4 *29:6 0.115519
12 *31:5 *29:6 0.0485309
13 *31:4 *74 0.0412942
14 *31:4 *30:4 0.0182938
15 *31:5 *30:5 0.0686499
16 *75 *32:6 0.00224486
17 *31:5 *32:6 0.131467
18 *31:4 *33:4 0.00472119
19 *75 *34:6 0.00962037
20 *31:5 *34:5 0.606259
21 *75 *37:2 0.000782694
22 *31:4 *45:6 0.0385624
23 *75 3.31615
24 *94:I 0.0556983
25 *125:ZN 0.287192
26 *137:SETN 0.516227
27 *31:4 0.811118
28 *31:5 2.16352
29 *31:8 0.0

*RES
1 *75 *31:5 39.6852
2 *94:I *31:5 34.0744
3 *94:I *31:8 0.001
4 *125:ZN *31:4 19.19
5 *125:ZN *31:7 0.001
6 *137:SETN *31:4 53.2158
7 *137:SETN *31:6 0.001
8 *31:4 *31:5 22.7191
*END

*D_NET *32 13.0896

*CONN
*P *76 O *C 54.0400 66.0000
*I *98:I I *C 63.0000 14.8400
*I *126:ZN O *C 54.6000 22.6800 *D gf180mcu_fd_sc_mcu7t5v0__tiel
*I *138:SETN I *C 54.0400 17.6400

*CAP
1 *32:6 *48 0.00190779
2 *32:6 *4:2 0.0708392
3 *32:6 *9:2 0.47831
4 *32:4 *11:2 0.0109742
5 *32:4 *15:2 1.6672
6 *32:6 *15:2 0.605857
7 *32:4 *60 0.750474
8 *32:4 *19:3 0.491037
9 *32:4 *22:3 0.0168075
10 *32:6 *28:4 1.3815
11 *32:6 *75 0.00224486
12 *32:6 *31:5 0.131467
13 *32:6 *77 0.0271321
14 *32:6 *34:5 0.0185973
15 *32:6 *34:6 0.0659299
16 *32:6 *37:2 0.0109336
17 *76 *40:6 0.0059775
18 *76 4.083
19 *98:I 0.203755
20 *126:ZN 0.123523
21 *138:SETN 0.279865
22 *32:4 1.68871
23 *32:5 0.117317
24 *32:6 0.856249
25 *32:9 0.0

*RES
1 *76 *32:4 23.1016
2 *98:I *32:6 39.8152
3 *98:I *32:9 0.001
4 *98:I *32:5 0.001
5 *126:ZN *32:4 51.2065
6 *126:ZN *32:8 0.001
7 *138:SETN *32:6 35.2713
8 *138:SETN *32:7 0.001
9 *32:4 *32:6 18.8671
*END

*D_NET *33 10.3975

*CONN
*P *77 O *C 71.0000 17.0800
*I *93:I I *C 34.4400 10.3600
*I *127:ZN O *C 30.5200 16.5200 *D gf180mcu_fd_sc_mcu7t5v0__tiel
*I *137:RN I *C 25.4800 13.7200

*CAP
1 *33:4 *3:2 0.00743627
2 *77 *48 0.742786
3 *77 *4:2 0.294949
4 *93:I *140:ZN 0.0242396
5 *33:4 *6:2 1.11331
6 *93:I *7:2 0.0649196
7 *33:4 *7:2 0.0316061
8 *33:4 *23:5 0.448898
9 *77 *28:4 1.10056
10 *33:4 *28:4 0.0338416
11 *33:4 *29:6 0.00458715
12 *93:I *30:4 0.00555215
13 *33:4 *30:4 0.0153922
14 *33:4 *30:5 0.217812
15 *33:4 *31:4 0.00472119
16 *77 *32:6 0.0271321
17 *77 *34:5 0.630023
18 *77 *34:6 0.150944
19 *33:4 *34:5 0.0892042
20 *93:I *38:4 0.529542
21 *33:4 *38:4 0.013058
22 *33:4 *43:3 0.00849642
23 *33:4 *89 0.0025764
24 *33:4 *45:6 0.314002
25 *77 1.86925
26 *93:I 0.00137267
27 *127:ZN 0.0629527
28 *137:RN 0.170871
29 *33:4 2.21755
30 *33:5 0.199953
31 *33:8 0.0

*RES
1 *77 *33:4 18.7396
2 *93:I *33:4 36.6091
3 *93:I *33:8 0.001
4 *127:ZN *33:5 33.69
5 *127:ZN *33:7 0.001
6 *137:RN *33:5 37.8547
7 *137:RN *33:6 0.001
8 *33:4 *33:5 2.29632
*END

*D_NET *34 12.6262

*CONN
*P *78 O *C 7.0000 4.0000
*I *97:I I *C 65.2400 14.8400
*I *128:ZN O *C 51.8000 14.8400 *D gf180mcu_fd_sc_mcu7t5v0__tiel
*I *138:RN I *C 55.7200 17.6400

*CAP
1 *34:6 *48 0.0037359
2 *34:6 *4:2 0.00682516
3 *34:5 *6:2 0.101112
4 *34:6 *9:2 0.01833
5 *34:5 *58 0.164595
6 *34:6 *15:2 0.497475
7 *34:5 *62 0.033264
8 *78 *26:3 0.0185488
9 *34:5 *28:4 1.4537
10 *34:6 *28:4 0.00640148
11 *34:6 *28:5 0.0127768
12 *78 *137:CLK 0.0634103
13 *34:5 *29:5 0.117215
14 *34:5 *29:6 0.455765
15 *34:5 *30:5 0.422901
16 *34:6 *75 0.00962037
17 *34:5 *31:5 0.606259
18 *34:5 *32:6 0.0185973
19 *34:6 *32:6 0.0659299
20 *34:5 *77 0.630023
21 *34:6 *77 0.150944
22 *34:5 *33:4 0.0892042
23 *34:5 *45:6 0.0271425
24 *34:5 *46:4 0.365261
25 *78 4.90373
26 *97:I 0.611978
27 *128:ZN 0.0628747
28 *34:4 0.0916584
29 *34:5 0.825267
30 *34:6 0.791639
31 *34:9 0.0

*RES
1 *78 *34:5 64.8416
2 *97:I *34:9 0.001
3 *97:I *34:4 0.001
4 *97:I *34:6 57.0447
5 *128:ZN *34:7 0.001
6 *128:ZN *34:5 18.3289
7 *138:RN *34:6 16.845
8 *138:RN *34:8 0.001
9 *34:5 *34:6 35.7967
*END

*D_NET *35 1.17456

*CONN
*P *79 O *C 20.4400 4.0000
*I *106:Z O *C 20.4400 10.3600 *D gf180mcu_fd_sc_mcu7t5v0__tieh

*CAP
1 *79 *74 0.0672436
2 *79 1.10732
3 *35:3 0.0

*RES
1 *79 *35:3 3.30865
2 *106:Z *35:3 16.845
3 *106:Z *35:2 0.001
*END

*D_NET *36 1.32689

*CONN
*P *80 O *C 4.0000 57.4000
*I *107:Z O *C 10.9200 57.4000 *D gf180mcu_fd_sc_mcu7t5v0__tieh

*CAP
1 *80 *12:3 0.15322
2 *80 *69 0.0378511
3 *80 1.07137
4 *36:2 0.0644493
5 *36:3 0.0

*RES
1 *80 *36:2 20.4407
2 *107:Z *36:2 16.845
3 *107:Z *36:3 0.001
*END

*D_NET *37 1.97346

*CONN
*P *81 O *C 71.0000 23.8000
*I *108:Z O *C 63.5600 21.0000 *D gf180mcu_fd_sc_mcu7t5v0__tieh

*CAP
1 *37:2 *9:2 0.401928
2 *37:2 *75 0.000782694
3 *37:2 *32:6 0.0109336
4 *81 0.460567
5 *108:Z 0.188424
6 *37:2 0.910826
7 *37:3 0.0

*RES
1 *81 *37:2 3.86223
2 *108:Z *37:3 0.001
3 *108:Z *37:2 35.2226
*END

*D_NET *38 2.19138

*CONN
*P *82 O *C 33.8800 4.0000
*I *129:ZN O *C 34.4400 16.5200 *D gf180mcu_fd_sc_mcu7t5v0__tiel
*I *141:I I *C 34.4400 13.7200

*CAP
1 *38:4 *140:ZN 0.0929218
2 *38:4 *7:2 0.00359498
3 *38:4 *30:4 0.114366
4 *38:4 *93:I 0.529542
5 *38:4 *33:4 0.013058
6 *38:4 *45:6 0.00413459
7 *38:4 *45:8 0.00106661
8 *82 0.398973
9 *38:4 1.03373
10 *38:5 0.0

*RES
1 *82 *38:4 4.9822
2 *129:ZN *38:5 0.001
3 *129:ZN *38:4 18.3289
4 *141:I *38:4 16.845
5 *141:I *38:3 0.001
*END

*D_NET *39 1.24466

*CONN
*P *83 O *C 4.0000 43.9600
*I *109:Z O *C 10.9200 42.2800 *D gf180mcu_fd_sc_mcu7t5v0__tieh

*CAP
1 *83 *69 0.0351489
2 *83 *73 0.0116195
3 *83 0.974289
4 *39:3 0.223601

*RES
1 *83 *39:3 21.3992
2 *109:Z *39:3 16.845
3 *109:Z *39:2 0.001
*END

*D_NET *40 7.42319

*CONN
*P *84 O *C 74.2000 66.0000
*I *99:I I *C 32.7600 54.0400
*I *130:ZN O *C 38.9200 56.2800 *D gf180mcu_fd_sc_mcu7t5v0__tiel
*I *142:I I *C 36.6800 52.9200

*CAP
1 *40:5 *5:2 0.01833
2 *40:6 *5:2 0.0998319
3 *40:6 *8:2 0.019178
4 *40:6 *60 0.730132
5 *40:6 *16:3 0.134394
6 *84 *63 0.113415
7 *40:6 *63 0.0759941
8 *40:6 *22:3 0.914943
9 *84 *68 0.0974597
10 *40:6 *24:4 0.0148832
11 *40:6 *71 0.0342042
12 *40:6 *76 0.0059775
13 *84 2.47423
14 *99:I 0.230045
15 *130:ZN 0.0326103
16 *142:I 0.0135399
17 *40:4 0.0919078
18 *40:5 0.737519
19 *40:6 1.58459
20 *40:9 0.0

*RES
1 *84 *40:6 41.1204
2 *99:I *40:5 52.6417
3 *99:I *40:7 0.001
4 *99:I *40:4 0.001
5 *130:ZN *40:6 33.69
6 *130:ZN *40:9 0.001
7 *142:I *40:5 17.4678
8 *142:I *40:8 0.001
9 *40:5 *40:6 19.2746
*END

*D_NET *41 10.2547

*CONN
*P *85 O *C 20.4400 66.0000
*I *91:I I *C 29.4000 33.3200
*I *105:I I *C 32.2000 33.3200
*I *131:ZN O *C 29.4000 37.8000 *D gf180mcu_fd_sc_mcu7t5v0__tiel

*CAP
1 *41:5 *61 0.831453
2 *85 *17:4 0.805926
3 *41:5 *23:5 0.0739671
4 *41:5 *23:7 0.0134083
5 *85 *69 0.0299134
6 *85 *25:5 1.62002
7 *85 *44:3 1.98695
8 *85 *89 0.0932067
9 *85 1.92582
10 *105:I 0.20563
11 *41:4 0.876185
12 *41:5 1.79219
13 *41:8 0.0

*RES
1 *85 *41:5 57.4759
2 *91:I *41:4 16.845
3 *91:I *41:6 0.001
4 *105:I *41:4 52.0676
5 *105:I *41:8 0.001
6 *131:ZN *41:5 16.845
7 *131:ZN *41:7 0.001
8 *41:4 *41:5 2.34502
*END

*D_NET *42 4.91118

*CONN
*P *86 O *C 27.1600 66.0000
*I *132:ZN O *C 12.6000 48.4400 *D gf180mcu_fd_sc_mcu7t5v0__tiel
*I *145:A1 I *C 12.0400 53.4800

*CAP
1 *42:3 *8:2 0.350531
2 *42:3 *69 0.0600684
3 *42:3 *44:3 0.1806
4 *86 *89 0.157415
5 *86 2.39908
6 *132:ZN 0.0403931
7 *42:3 1.72309
8 *42:5 0.0

*RES
1 *86 *42:3 49.7258
2 *132:ZN *42:5 0.001
3 *132:ZN *42:3 17.7061
4 *145:A1 *42:4 0.001
5 *145:A1 *42:3 18.6159
*END

*D_NET *43 2.26541

*CONN
*P *87 O *C 47.3200 4.0000
*I *133:ZN O *C 43.4000 8.6800 *D gf180mcu_fd_sc_mcu7t5v0__tiel
*I *146:A1 I *C 42.2800 14.2800

*CAP
1 *43:3 *7:2 0.255937
2 *43:3 *57 0.095039
3 *43:3 *28:4 0.00170575
4 *43:3 *33:4 0.00849642
5 *43:3 *45:8 0.0341183
6 *87 1.00881
7 *146:A1 0.0270647
8 *43:3 0.834234
9 *43:5 0.0

*RES
1 *87 *43:3 38.2442
2 *133:ZN *43:3 16.845
3 *133:ZN *43:5 0.001
4 *146:A1 *43:3 20.3216
5 *146:A1 *43:4 0.001
*END

*D_NET *44 6.86231

*CONN
*P *88 O *C 4.0000 30.5200
*I *134:ZN O *C 15.4000 53.4800 *D gf180mcu_fd_sc_mcu7t5v0__tiel
*I *145:A2 I *C 12.6000 52.9200

*CAP
1 *44:3 *8:2 0.165771
2 *44:3 *69 0.00220384
3 *44:3 *85 1.98695
4 *44:3 *42:3 0.1806
5 *88 3.22547
6 *134:ZN 0.0398801
7 *145:A2 0.0854191
8 *44:3 1.17601
9 *44:5 0.0

*RES
1 *88 *44:3 53.7931
2 *134:ZN *44:3 33.69
3 *134:ZN *44:5 0.001
4 *145:A2 *44:3 35.5583
5 *145:A2 *44:4 0.001
*END

*D_NET *45 13.0822

*CONN
*P *89 O *C 4.0000 64.1200
*I *102:I I *C 40.0400 10.3600
*I *135:ZN O *C 37.2400 9.2400 *D gf180mcu_fd_sc_mcu7t5v0__tiel
*I *146:A2 I *C 39.4800 13.7200

*CAP
1 *45:6 *3:2 0.749303
2 *45:6 *6:2 0.0177513
3 *45:6 *7:2 0.0516924
4 *45:8 *7:2 0.0110897
5 *45:8 *57 0.470486
6 *89 *23:5 0.860473
7 *89 *69 0.135654
8 *89 *73 0.115327
9 *45:6 *30:5 0.00255466
10 *45:8 *30:5 0.00183809
11 *45:6 *31:4 0.0385624
12 *89 *33:4 0.0025764
13 *45:6 *33:4 0.314002
14 *45:6 *34:5 0.0271425
15 *45:6 *38:4 0.00413459
16 *45:8 *38:4 0.00106661
17 *89 *85 0.0932067
18 *89 *86 0.157415
19 *45:8 *43:3 0.0341183
20 *89 *46:4 0.0182991
21 *89 5.57874
22 *135:ZN 0.387044
23 *45:6 3.56816
24 *45:8 0.44156

*RES
1 *89 *45:6 94.8468
2 *102:I *45:8 16.845
3 *102:I *45:7 0.001
4 *135:ZN *45:4 0.001
5 *135:ZN *45:8 52.6904
6 *146:A2 *45:6 16.845
7 *146:A2 *45:5 0.001
8 *45:6 *45:8 1.72224
*END

*D_NET *46 10.416

*CONN
*P *90 O *C 71.0000 30.5200
*I *103:I I *C 21.5600 18.2000
*I *136:ZN O *C 17.0800 22.6800 *D gf180mcu_fd_sc_mcu7t5v0__tiel
*I *147:A1 I *C 14.2800 17.6400

*CAP
1 *46:4 *3:2 0.102785
2 *46:5 *3:2 0.428669
3 *90 *9:2 0.0897843
4 *46:4 *62 0.309042