*SPEF "IEEE 1481-1999"
*DESIGN "spare_logic_block"
*DATE "Tue Oct 17 02:38:21 2023"
*VENDOR "Synopsys Inc."
*PROGRAM "StarRC"
*VERSION "U-2022.12-SP4"
*DESIGN_FLOW "PIN_CAP NONE" "NAME_SCOPE LOCAL"
*DIVIDER /
*DELIMITER :
*BUS_DELIMITER []
*T_UNIT 1.0 NS
*C_UNIT 1.0 FF
*R_UNIT 1.0 OHM
*L_UNIT 1.0 HENRY

// COMMENTS

// CORNER_NAME 
// OPERATING_TEMPERATURE 25
// GLOBAL_TEMPERATURE 25
// TCAD_GRD_FILE /home/passant/caravel-gf180mcu/scripts/gf180mcu-tech/gf180mcu_1p5m_1tm_11k_sp_smim_OPTB_typ.nxtgrd
//   TCAD_TIME_STAMP Tue Dec 26 18:36:27 2017
//   TCADGRD_VERSION 75
// galaxy_comments_begin
//   local_nodeid
// galaxy_comments_end

*NAME_MAP
*47 spare_xfq[0]
*48 spare_xfq[1]
*49 spare_xi[0]
*50 spare_xi[1]
*51 spare_xi[2]
*52 spare_xi[3]
*53 spare_xib
*54 spare_xmx[0]
*55 spare_xmx[1]
*56 spare_xna[0]
*57 spare_xna[1]
*58 spare_xno[0]
*59 spare_xno[1]
*60 spare_xz[0]
*61 spare_xz[10]
*62 spare_xz[11]
*63 spare_xz[12]
*64 spare_xz[13]
*65 spare_xz[14]
*66 spare_xz[15]
*67 spare_xz[16]
*68 spare_xz[17]
*69 spare_xz[18]
*70 spare_xz[19]
*71 spare_xz[1]
*72 spare_xz[20]
*73 spare_xz[21]
*74 spare_xz[22]
*75 spare_xz[23]
*76 spare_xz[24]
*77 spare_xz[25]
*78 spare_xz[26]
*79 spare_xz[27]
*80 spare_xz[28]
*81 spare_xz[29]
*82 spare_xz[2]
*83 spare_xz[30]
*84 spare_xz[3]
*85 spare_xz[4]
*86 spare_xz[5]
*87 spare_xz[6]
*88 spare_xz[7]
*89 spare_xz[8]
*90 spare_xz[9]
*91 ANTENNA_spare_logic_biginv_I
*92 ANTENNA_spare_logic_flop\[0\]_CLK
*93 ANTENNA_spare_logic_flop\[0\]_RN
*94 ANTENNA_spare_logic_flop\[0\]_SETN
*95 ANTENNA_spare_logic_flop\[1\]_CLK
*96 ANTENNA_spare_logic_flop\[1\]_D
*97 ANTENNA_spare_logic_flop\[1\]_RN
*98 ANTENNA_spare_logic_flop\[1\]_SETN
*99 ANTENNA_spare_logic_inv\[3\]_I
*100 ANTENNA_spare_logic_mux\[1\]_I1
*101 ANTENNA_spare_logic_mux\[1\]_S
*102 ANTENNA_spare_logic_nand\[1\]_A2
*103 ANTENNA_spare_logic_nor\[0\]_A1
*104 ANTENNA_spare_logic_nor\[1\]_A1
*105 spare_logic_biginv
*106 spare_logic_const_one[0]
*107 spare_logic_const_one[1]
*108 spare_logic_const_one[2]
*109 spare_logic_const_one[3]
*110 spare_logic_const_zero[0]
*111 spare_logic_const_zero[10]
*112 spare_logic_const_zero[11]
*113 spare_logic_const_zero[12]
*114 spare_logic_const_zero[13]
*115 spare_logic_const_zero[14]
*116 spare_logic_const_zero[15]
*117 spare_logic_const_zero[16]
*118 spare_logic_const_zero[17]
*119 spare_logic_const_zero[18]
*120 spare_logic_const_zero[19]
*121 spare_logic_const_zero[1]
*122 spare_logic_const_zero[20]
*123 spare_logic_const_zero[21]
*124 spare_logic_const_zero[22]
*125 spare_logic_const_zero[23]
*126 spare_logic_const_zero[24]
*127 spare_logic_const_zero[25]
*128 spare_logic_const_zero[26]
*129 spare_logic_const_zero[2]
*130 spare_logic_const_zero[3]
*131 spare_logic_const_zero[4]
*132 spare_logic_const_zero[5]
*133 spare_logic_const_zero[6]
*134 spare_logic_const_zero[7]
*135 spare_logic_const_zero[8]
*136 spare_logic_const_zero[9]
*137 spare_logic_flop[0]
*138 spare_logic_flop[1]
*139 spare_logic_inv[0]
*140 spare_logic_inv[1]
*141 spare_logic_inv[2]
*142 spare_logic_inv[3]
*143 spare_logic_mux[0]
*144 spare_logic_mux[1]
*145 spare_logic_nand[0]
*146 spare_logic_nand[1]
*147 spare_logic_nor[0]
*148 spare_logic_nor[1]
*3 spare_xfq[0]
*4 spare_xfq[1]
*5 spare_xi[0]
*6 spare_xi[1]
*7 spare_xi[2]
*8 spare_xi[3]
*9 spare_xib
*10 spare_xmx[0]
*11 spare_xmx[1]
*12 spare_xna[0]
*13 spare_xna[1]
*14 spare_xno[0]
*15 spare_xno[1]
*16 spare_xz[0]
*17 spare_xz[10]
*18 spare_xz[11]
*19 spare_xz[12]
*20 spare_xz[13]
*21 spare_xz[14]
*22 spare_xz[15]
*23 spare_xz[16]
*24 spare_xz[17]
*25 spare_xz[18]
*26 spare_xz[19]
*27 spare_xz[1]
*28 spare_xz[20]
*29 spare_xz[21]
*30 spare_xz[22]
*31 spare_xz[23]
*32 spare_xz[24]
*33 spare_xz[25]
*34 spare_xz[26]
*35 spare_xz[27]
*36 spare_xz[28]
*37 spare_xz[29]
*38 spare_xz[2]
*39 spare_xz[30]
*40 spare_xz[3]
*41 spare_xz[4]
*42 spare_xz[5]
*43 spare_xz[6]
*44 spare_xz[7]
*45 spare_xz[8]
*46 spare_xz[9]

*PORTS

*47 O
*48 O
*49 O
*50 O
*51 O
*52 O
*53 O
*54 O
*55 O
*56 O
*57 O
*58 O
*59 O
*60 O
*61 O
*62 O
*63 O
*64 O
*65 O
*66 O
*67 O
*68 O
*69 O
*70 O
*71 O
*72 O
*73 O
*74 O
*75 O
*76 O
*77 O
*78 O
*79 O
*80 O
*81 O
*82 O
*83 O
*84 O
*85 O
*86 O
*87 O
*88 O
*89 O
*90 O

*D_NET *3 5.30312

*CONN
*P *47 O *C 4.0000 23.8000
*I *137:Q O *C 29.4000 14.2800 *D gf180mcu_fd_sc_mcu7t5v0__dffrsnq_2

*CAP
1 *3:2 *62 0.0821879
2 *3:2 *67 0.0414374
3 *47 *29:5 0.151659
4 *47 *29:6 0.0811539
5 *3:2 *30:4 0.00679478
6 *3:2 *31:4 0.70384
7 *3:2 *33:4 0.00760906
8 *3:2 *45:6 0.645682
9 *3:2 *46:4 0.102693
10 *3:2 *46:5 0.371243
11 *47 1.45358
12 *137:Q 0.615064
13 *3:2 1.04018
14 *3:3 0.0

*RES
1 *47 *3:2 12.0359
2 *137:Q *3:2 17.3411
3 *137:Q *3:3 0.001
*END

*D_NET *4 3.59759

*CONN
*P *48 O *C 67.4800 4.0000
*I *138:Q O *C 60.2000 17.6400 *D gf180mcu_fd_sc_mcu7t5v0__dffrsnq_2

*CAP
1 *48 *9:2 0.120832
2 *48 *28:4 0.301785
3 *4:2 *75 0.104184
4 *48 *32:6 0.00196221
5 *4:2 *32:6 0.0696865
6 *4:2 *77 0.894392
7 *48 *34:6 0.00400954
8 *4:2 *34:6 0.00703249
9 *48 1.88361
10 *4:2 0.210101
11 *4:3 0.0

*RES
1 *48 *4:2 15.8159
2 *138:Q *4:2 4.5
3 *138:Q *4:3 0.001
*END

*D_NET *5 3.35712

*CONN
*P *49 O *C 33.8800 66.0000
*I *139:ZN O *C 40.0400 52.3600 *D gf180mcu_fd_sc_mcu7t5v0__inv_2

*CAP
1 *5:2 *8:2 0.250432
2 *5:2 *11:2 0.516888
3 *5:2 *16:3 0.0698733
4 *5:2 *71 0.184829
5 *5:2 *40:5 0.0179773
6 *5:2 *40:6 0.101717
7 *49 0.379387
8 *139:ZN 0.471711
9 *5:2 1.36431
10 *5:3 0.0

*RES
1 *49 *5:2 4.41483
2 *139:ZN *5:2 15.5411
3 *139:ZN *5:3 0.001
*END

*D_NET *6 5.83369

*CONN
*P *50 O *C 27.1600 4.0000
*I *140:ZN O *C 35.0000 28.8400 *D gf180mcu_fd_sc_mcu7t5v0__inv_2

*CAP
1 *6:2 *23:5 0.0320858
2 *50 *74 0.00510326
3 *140:ZN *30:4 0.00345548
4 *140:ZN *30:5 0.00506856
5 *6:2 *74 0.0730447
6 *6:2 *30:4 0.000853304
7 *6:2 *30:5 0.423623
8 *140:ZN *31:4 0.0212464
9 *6:2 *31:4 0.892544
10 *140:ZN *93:I 0.0235112
11 *6:2 *33:4 0.966515
12 *6:2 *34:5 0.100923
13 *140:ZN *38:4 0.0810939
14 *6:2 *45:6 0.018236
15 *50 0.384587
16 *140:ZN 1.38827
17 *6:2 1.41353
18 *6:4 0.0

*RES
1 *50 *6:2 2.04429
2 *140:ZN *6:2 21.9327
3 *140:ZN *6:4 0.001
4 *140:ZN *6:3 0.001
*END

*D_NET *7 4.13179

*CONN
*P *51 O *C 71.0000 10.3600
*I *141:ZN O *C 36.1200 13.1600 *D gf180mcu_fd_sc_mcu7t5v0__inv_2

*CAP
1 *7:2 *57 0.0395848
2 *7:2 *59 0.0156829
3 *7:2 *75 0.00351122
4 *7:2 *93:I 0.0616503
5 *7:2 *33:4 0.0308749
6 *7:2 *38:4 0.00370532
7 *7:2 *43:3 0.23127
8 *7:2 *45:6 0.051843
9 *7:2 *45:8 0.0109305
10 *51 0.445357
11 *141:ZN 0.459662
12 *7:2 2.77771
13 *7:4 0.0

*RES
1 *51 *7:2 2.93786
2 *141:ZN *7:4 0.001
3 *141:ZN *7:3 0.001
4 *141:ZN *7:2 18.2652
*END

*D_NET *8 3.80188

*CONN
*P *52 O *C 4.0000 50.6800
*I *142:ZN O *C 35.0000 52.3600 *D gf180mcu_fd_sc_mcu7t5v0__inv_2

*CAP
1 *8:2 *5:2 0.250432
2 *8:2 *144:Z 0.0495707
3 *8:2 *11:2 0.0453511
4 *8:2 *12:3 0.211238
5 *8:2 *69 0.0108588
6 *8:2 *73 0.0131479
7 *8:2 *40:6 0.0189691
8 *8:2 *42:3 0.333671
9 *8:2 *44:3 0.158496
10 *52 0.425626
11 *142:ZN 0.0603082
12 *8:2 2.22421
13 *8:4 0.0

*RES
1 *52 *8:2 7.16786
2 *142:ZN *8:2 12.428
3 *142:ZN *8:4 0.001
4 *142:ZN *8:3 0.001
*END

*D_NET *9 7.15556

*CONN
*P *53 O *C 71.0000 3.6400
*I *105:ZN O *C 43.8825 33.8150 *D gf180mcu_fd_sc_mcu7t5v0__inv_12

*CAP
1 *9:2 *48 0.120832
2 *9:5 *17:4 0.120404
3 *9:5 *21:3 0.11143
4 *9:5 *28:5 0.00114691
5 *9:2 *75 0.0525979
6 *9:2 *32:6 0.41424
7 *9:2 *34:6 0.0179773
8 *9:2 *37:2 0.347584
9 *9:5 *90 0.0947486
10 *53 0.829004
11 *105:ZN 0.0633885
12 *9:2 3.88421
13 *9:3 0.0773476
14 *9:5 1.02065
15 *9:7 0.0

*RES
1 *53 *9:2 13.1561
2 *105:ZN *9:5 0.001
3 *105:ZN *9:6 0.001
4 *9:2 *9:5 23.3164
5 *9:3 *9:6 0.001
6 *9:3 *9:7 0.453177
7 *9:4 *9:5 0.001
8 *9:5 *9:6 0.001
9 *9:6 *9:7 11.55
*END

*D_NET *10 5.14729

*CONN
*P *54 O *C 74.2000 4.0000
*I *143:Z O *C 65.8000 51.8000 *D gf180mcu_fd_sc_mcu7t5v0__mux2_2

*CAP
1 *143:Z *11:2 0.124599
2 *10:2 *11:2 0.0972158
3 *143:Z *63 0.0447457
4 *54 1.18682
5 *143:Z 0.361809
6 *10:2 3.3321
7 *10:3 0.0

*RES
1 *54 *10:2 12.7414
2 *143:Z *10:2 19.1027
3 *143:Z *10:3 0.001
*END

*D_NET *11 7.47586

*CONN
*P *55 O *C 71.0000 50.6800
*I *144:Z O *C 35.0000 41.7200 *D gf180mcu_fd_sc_mcu7t5v0__mux2_2

*CAP
1 *11:2 *5:2 0.516888
2 *144:Z *8:2 0.0495707
3 *11:2 *8:2 0.0453511
4 *11:2 *143:Z 0.124599
5 *11:2 *10:2 0.0972158
6 *11:2 *16:3 1.76728
7 *11:2 *63 0.0759218
8 *11:2 *19:3 0.0158431
9 *11:2 *20:3 0.651761
10 *11:2 *22:3 0.00454626
11 *144:Z *23:7 0.0146021
12 *144:Z *25:6 0.0012866
13 *144:Z *71 0.0339823
14 *11:2 *32:4 0.00991882
15 *55 0.386892
16 *144:Z 1.12859
17 *11:2 2.5516
18 *11:3 0.0

*RES
1 *55 *11:2 4.55143
2 *144:Z *11:2 19.62
3 *144:Z *11:3 0.001
*END

*D_NET *12 2.8071

*CONN
*P *56 O *C 0.2800 66.0000
*I *145:ZN O *C 9.8000 54.0400 *D gf180mcu_fd_sc_mcu7t5v0__nand2_2

*CAP
1 *12:3 *8:2 0.211238
2 *12:3 *69 0.162882
3 *56 *73 0.0299131
4 *12:3 *73 0.537531
5 *12:3 *80 0.14882
6 *56 0.379387
7 *145:ZN 0.327738
8 *12:3 1.00959
9 *12:4 0.0

*RES
1 *56 *12:3 3.87483
2 *145:ZN *12:3 16.6211
3 *145:ZN *12:4 0.001
4 *145:ZN *12:2 0.001
*END

*D_NET *13 1.62291

*CONN
*P *57 O *C 40.6000 4.0000
*I *146:ZN O *C 40.6000 13.1600 *D gf180mcu_fd_sc_mcu7t5v0__nand2_2

*CAP
1 *57 *7:2 0.0395848
2 *57 *43:3 0.0941489
3 *57 *45:8 0.406976
4 *57 1.0822
5 *13:3 0.0

*RES
1 *57 *13:3 2.97482
2 *146:ZN *13:3 4.5
3 *146:ZN *13:2 0.001
*END

*D_NET *14 1.1477

*CONN
*P *58 O *C 4.0000 17.0800
*I *147:ZN O *C 11.4800 17.0800 *D gf180mcu_fd_sc_mcu7t5v0__nor2_2

*CAP
1 *58 *62 0.0121975
2 *58 *137:CLK 0.0136989
3 *58 *29:5 0.11862
4 *58 *34:5 0.155904
5 *58 0.757493
6 *14:2 0.0897853
7 *14:3 0.0

*RES
1 *58 *14:2 6.93482
2 *147:ZN *14:2 4.5
3 *147:ZN *14:3 0.001
*END

*D_NET *15 5.9981

*CONN
*P *59 O *C 54.0400 4.0000
*I *148:ZN O *C 55.1600 36.1150 *D gf180mcu_fd_sc_mcu7t5v0__nor2_2

*CAP
1 *59 *7:2 0.0156829
2 *15:2 *19:3 0.0373822
3 *15:2 *32:4 1.45037
4 *15:2 *32:6 0.537518
5 *15:2 *34:6 0.435681
6 *59 0.9691
7 *15:2 2.55237
8 *15:9 0.0

*RES
1 *59 *15:2 8.96787
2 *148:ZN *15:3 0.001
3 *148:ZN *15:7 0.001
4 *148:ZN *15:6 0.001
5 *148:ZN *15:8 0.001
6 *148:ZN *15:5 0.001
7 *148:ZN *15:9 0.001
8 *15:2 *15:5 6.24697
9 *15:4 *15:5 0.001
*END

*D_NET *16 6.70874

*CONN
*P *60 O *C 71.0000 57.4000
*I *110:ZN O *C 40.0400 48.4400 *D gf180mcu_fd_sc_mcu7t5v0__tiel
*I *139:I I *C 41.1600 52.9200

*CAP
1 *16:3 *5:2 0.0698733
2 *16:3 *11:2 1.76728
3 *60 *63 0.00520379
4 *60 *19:3 0.0140268
5 *60 *20:3 0.00269667
6 *16:3 *20:3 0.0180668
7 *60 *22:3 0.240616
8 *60 *24:4 0.00196342
9 *16:3 *71 0.157359
10 *60 *32:4 0.650524
11 *60 *40:6 0.68106
12 *16:3 *40:6 0.131607
13 *60 1.3123
14 *110:ZN 0.121329
15 *16:3 1.53483
16 *16:5 0.0

*RES
1 *60 *16:3 24.8641
2 *110:ZN *16:3 6.075
3 *110:ZN *16:4 0.001
4 *139:I *16:5 0.001
5 *139:I *16:3 4.71054
*END

*D_NET *17 8.12152

*CONN
*P *61 O *C 4.0000 37.2400
*I *104:I I *C 50.6800 33.8800
*I *111:ZN O *C 48.4400 37.8000 *D gf180mcu_fd_sc_mcu7t5v0__tiel
*I *148:A1 I *C 52.9200 37.2400

*CAP
1 *17:4 *9:5 0.120404
2 *104:I *19:3 0.00303845
3 *104:I *21:3 0.00447658
4 *17:4 *21:3 0.619094
5 *17:4 *23:5 0.961245
6 *17:4 *23:7 0.00703315
7 *61 *25:5 0.427136
8 *17:4 *25:5 0.392699
9 *17:4 *25:6 0.0320549
10 *104:I *28:5 0.0311614
11 *17:4 *28:5 0.0827971
12 *61 *41:5 0.716449
13 *17:4 *41:5 0.694342
14 *61 1.03206
15 *104:I 0.189233
16 *111:ZN 0.0797768
17 *148:A1 0.0941687
18 *17:4 2.30508
19 *17:5 0.32927
20 *17:8 0.0

*RES
1 *61 *17:4 14.2618
2 *104:I *17:5 9.96107
3 *104:I *17:7 0.001
4 *111:ZN *17:4 9.24107
5 *111:ZN *17:6 0.001
6 *148:A1 *17:5 9.99161
7 *148:A1 *17:8 0.001
8 *17:4 *17:5 0.900001
*END

*D_NET *18 2.58494

*CONN
*P *62 O *C 13.7200 4.0000
*I *112:ZN O *C 18.2000 16.5200 *D gf180mcu_fd_sc_mcu7t5v0__tiel
*I *147:A2 I *C 13.7200 18.2000

*CAP
1 *62 *3:2 0.0821879
2 *62 *58 0.0121975
3 *62 *26:3 0.0460236
4 *62 *34:5 0.0339666
5 *62 *46:4 0.283528
6 *62 1.84881
7 *112:ZN 0.104412
8 *18:3 0.17382
9 *18:5 0.0

*RES
1 *62 *18:3 4.02429
2 *112:ZN *18:5 0.001
3 *112:ZN *18:3 15.0011
4 *147:A2 *18:4 0.001
5 *147:A2 *18:3 5.07054
*END

*D_NET *19 5.97004

*CONN
*P *63 O *C 67.4800 66.0000
*I *113:ZN O *C 56.8400 40.0400 *D gf180mcu_fd_sc_mcu7t5v0__tiel
*I *148:A2 I *C 55.1600 37.2400

*CAP
1 *63 *143:Z 0.0447457
2 *63 *11:2 0.0759218
3 *19:3 *11:2 0.0158431
4 *19:3 *15:2 0.0373822
5 *63 *60 0.00520379
6 *19:3 *60 0.0140268
7 *19:3 *104:I 0.00303845
8 *63 *20:3 0.0018435
9 *19:3 *20:3 0.6219
10 *19:3 *21:3 0.0852186
11 *63 *66 0.010698
12 *63 *22:3 0.0707106
13 *19:3 *22:3 0.00338333
14 *19:3 *24:4 0.00215218
15 *19:3 *72 0.0567141
16 *19:3 *32:4 0.437635
17 *63 *84 0.111006
18 *63 *40:6 0.0740321
19 *63 1.95534
20 *113:ZN 0.0363595
21 *148:A2 0.243864
22 *19:3 2.06303
23 *19:5 0.0

*RES
1 *63 *19:3 25.4475
2 *113:ZN *19:3 9.0
3 *113:ZN *19:5 0.001
4 *148:A2 *19:3 10.5316
5 *148:A2 *19:4 0.001
*END

*D_NET *20 5.0856

*CONN
*P *64 O *C 47.3200 66.0000
*I *114:ZN O *C 60.7600 48.4400 *D gf180mcu_fd_sc_mcu7t5v0__tiel
*I *143:I0 I *C 60.2000 53.4800

*CAP
1 *20:3 *11:2 0.651761
2 *20:3 *60 0.00269667
3 *20:3 *16:3 0.0180668
4 *20:3 *63 0.0018435
5 *20:3 *19:3 0.6219
6 *20:3 *24:4 0.00778296
7 *64 2.53854
8 *114:ZN 0.113537
9 *20:3 1.12947
10 *20:5 0.0

*RES
1 *64 *20:3 18.3359
2 *114:ZN *20:3 5.04
3 *114:ZN *20:5 0.001
4 *143:I0 *20:4 0.001
5 *143:I0 *20:3 5.61054
*END

*D_NET *21 4.2697

*CONN
*P *65 O *C 71.0000 37.2400
*I *115:ZN O *C 42.8400 38.3600 *D gf180mcu_fd_sc_mcu7t5v0__tiel
*I *144:I0 I *C 40.6000 40.6000

*CAP
1 *21:3 *9:5 0.11143
2 *21:3 *104:I 0.00447658
3 *21:3 *17:4 0.619094
4 *21:3 *19:3 0.0852186
5 *21:3 *25:5 0.00234069
6 *21:3 *25:6 0.0855987
7 *21:3 *71 0.100203
8 *65 1.58125
9 *115:ZN 0.0473405
10 *144:I0 0.136477
11 *21:3 1.49626
12 *21:5 0.0

*RES
1 *65 *21:3 9.41144
2 *115:ZN *21:3 9.0
3 *115:ZN *21:5 0.001
4 *144:I0 *21:3 10.5316
5 *144:I0 *21:4 0.001
*END

*D_NET *22 3.74428

*CONN
*P *66 O *C 60.7600 66.0000
*I *116:ZN O *C 56.8400 54.0400 *D gf180mcu_fd_sc_mcu7t5v0__tiel
*I *143:I1 I *C 64.1200 52.9200

*CAP
1 *22:3 *11:2 0.00454626
2 *22:3 *60 0.240616
3 *66 *63 0.010698
4 *22:3 *63 0.0707106
5 *22:3 *19:3 0.00338333
6 *66 *24:4 0.316902
7 *22:3 *24:4 0.00280483
8 *22:3 *32:4 0.017742
9 *22:3 *40:6 0.790895
10 *66 0.74605
11 *116:ZN 0.329856
12 *143:I1 0.186755
13 *22:3 1.02332
14 *22:5 0.0

*RES
1 *66 *22:3 7.83483
2 *116:ZN *22:3 10.8916
3 *116:ZN *22:4 0.001
4 *143:I1 *22:3 11.0716
5 *143:I1 *22:5 0.001
*END

*D_NET *23 9.20642

*CONN
*P *67 O *C 4.0000 10.3600
*I *100:I I *C 31.6400 40.0400
*I *117:ZN O *C 32.7600 37.8000 *D gf180mcu_fd_sc_mcu7t5v0__tiel
*I *144:I1 I *C 36.6800 41.1600

*CAP
1 *67 *3:2 0.0414374
2 *23:5 *6:2 0.0320858
3 *23:7 *144:Z 0.0146021
4 *23:5 *17:4 0.961245
5 *23:7 *17:4 0.00703315
6 *23:5 *25:5 0.0172488
7 *23:7 *25:5 0.080804
8 *23:7 *25:6 0.0573223
9 *67 *70 0.368647
10 *23:7 *71 0.00199198
11 *23:5 *29:6 0.02521
12 *67 *74 0.036675
13 *67 *31:4 0.0207501
14 *23:5 *31:4 0.0094524
15 *23:5 *33:4 0.390779
16 *23:5 *41:5 0.075368
17 *23:7 *41:5 0.0146299
18 *23:5 *89 0.822782
19 *67 2.82593
20 *117:ZN 0.114521
21 *144:I1 0.266522
22 *23:4 0.0776025
23 *23:5 2.17178
24 *23:7 0.771995
25 *23:9 0.0

*RES
1 *67 *23:5 26.4664
2 *100:I *23:7 4.5
3 *100:I *23:6 0.001
4 *100:I *23:4 0.001
5 *117:ZN *23:5 9.81161
6 *117:ZN *23:8 0.001
7 *144:I1 *23:7 15.5716
8 *144:I1 *23:9 0.001
9 *23:5 *23:7 5.61054
*END

*D_NET *24 2.48218

*CONN
*P *68 O *C 71.0000 64.1200
*I *118:ZN O *C 62.4400 56.2800 *D gf180mcu_fd_sc_mcu7t5v0__tiel
*I *143:S I *C 63.0000 53.4800

*CAP
1 *24:4 *60 0.00196342
2 *24:4 *19:3 0.00215218
3 *24:4 *20:3 0.00778296
4 *24:4 *66 0.316902
5 *24:4 *22:3 0.00280483
6 *68 *84 0.0893254
7 *24:4 *40:6 0.0121293
8 *68 0.722367
9 *143:S 0.0822772
10 *24:4 1.24447
11 *24:5 0.0

*RES
1 *68 *24:4 9.83251
2 *118:ZN *24:4 4.5
3 *118:ZN *24:3 0.001
4 *143:S *24:4 5.43054
5 *143:S *24:5 0.001
*END

*D_NET *25 9.19055

*CONN
*P *69 O *C 13.7200 66.0000
*I *101:I I *C 43.4000 40.0400
*I *119:ZN O *C 35.5600 38.3600 *D gf180mcu_fd_sc_mcu7t5v0__tiel
*I *144:S I *C 37.8000 40.6000

*CAP
1 *69 *8:2 0.0108588
2 *25:6 *144:Z 0.0012866
3 *69 *12:3 0.162882
4 *25:5 *61 0.427136
5 *25:5 *17:4 0.392699
6 *25:6 *17:4 0.0320549
7 *25:5 *21:3 0.00234069
8 *25:6 *21:3 0.0855987
9 *25:5 *23:5 0.0172488
10 *25:5 *23:7 0.080804
11 *25:6 *23:7 0.0573223
12 *25:6 *71 0.0505417
13 *69 *73 0.0608188
14 *69 *80 0.0373888
15 *69 *83 0.0355777
16 *69 *85 0.0292262
17 *25:5 *85 1.39543
18 *69 *42:3 0.0595349
19 *69 *44:3 0.00226211
20 *69 *89 0.124467
21 *69 3.18797
22 *101:I 0.297195
23 *119:ZN 0.029357
24 *25:4 0.0783435
25 *25:5 1.91204
26 *25:6 0.620169
27 *25:9 0.0

*RES
1 *69 *25:5 23.9738
2 *101:I *25:6 15.3611
3 *101:I *25:9 0.001
4 *101:I *25:4 0.001
5 *119:ZN *25:5 9.0
6 *119:ZN *25:7 0.001
7 *144:S *25:8 0.001
8 *144:S *25:6 4.71054
9 *25:5 *25:6 5.82107
*END

*D_NET *26 2.49858

*CONN
*P *70 O *C 0.2800 4.0000
*I *120:ZN O *C 10.9200 8.6800 *D gf180mcu_fd_sc_mcu7t5v0__tiel
*I *137:D I *C 10.9200 13.7200

*CAP
1 *26:3 *62 0.0460236
2 *70 *67 0.368647
3 *26:3 *137:CLK 0.0183699
4 *26:3 *78 0.0186412
5 *70 1.06185
6 *26:3 0.985049
7 *26:5 0.0

*RES
1 *70 *26:3 14.0159
2 *120:ZN *26:3 4.5
3 *120:ZN *26:4 0.001
4 *137:D *26:5 0.001
5 *137:D *26:3 6.15054
*END

*D_NET *27 5.14898

*CONN
*P *71 O *C 40.6000 66.0000
*I *121:ZN O *C 39.4800 37.8000 *D gf180mcu_fd_sc_mcu7t5v0__tiel
*I *140:I I *C 36.6800 29.4000

*CAP
1 *71 *5:2 0.184829
2 *71 *144:Z 0.0339823
3 *71 *16:3 0.157359
4 *71 *21:3 0.100203
5 *71 *23:7 0.00199198
6 *71 *25:6 0.0505417
7 *71 *40:6 0.0351375
8 *71 1.73022
9 *140:I 0.108632
10 *27:3 2.74609
11 *27:5 0.0

*RES
1 *71 *27:3 9.4468
2 *121:ZN *27:5 0.001
3 *121:ZN *27:3 4.5
4 *140:I *27:3 8.0325
5 *140:I *27:4 0.001
*END

*D_NET *28 10.8461

*CONN
*P *72 O *C 71.0000 43.9600
*I *96:I I *C 63.0000 18.2000
*I *122:ZN O *C 47.8800 14.8400 *D gf180mcu_fd_sc_mcu7t5v0__tiel
*I *138:D I *C 42.2800 17.6400

*CAP
1 *28:4 *48 0.301785
2 *28:5 *9:5 0.00114691
3 *28:5 *104:I 0.0311614
4 *28:5 *17:4 0.0827971
5 *72 *19:3 0.0567141
6 *28:4 *30:5 0.014016
7 *28:4 *75 0.000668269
8 *28:4 *31:5 0.0745477
9 *28:4 *32:6 1.19384
10 *28:4 *77 0.980489
11 *28:4 *33:4 0.029674
12 *28:4 *34:5 1.27625
13 *28:4 *34:6 0.00662787
14 *28:5 *34:6 0.0127963
15 *28:4 *43:3 0.00198303
16 *28:5 *90 0.0751587
17 *72 3.35399
18 *96:I 0.0733258
19 *138:D 0.0697483
20 *28:4 0.673944
21 *28:5 2.53545
22 *28:8 0.0

*RES
1 *72 *28:5 20.3609
2 *96:I *28:4 14.0705
3 *96:I *28:8 0.001
4 *122:ZN *28:5 5.43054
5 *122:ZN *28:7 0.001
6 *138:D *28:4 10.808
7 *138:D *28:6 0.001
8 *28:4 *28:5 4.5
*END

*D_NET *29 9.59743

*CONN
*P *73 O *C 7.0000 66.0000
*I *92:I I *C 27.1600 18.2000
*I *123:ZN O *C 11.4800 22.1200 *D gf180mcu_fd_sc_mcu7t5v0__tiel
*I *137:CLK I *C 9.2400 13.7200

*CAP
1 *29:5 *47 0.151659
2 *29:6 *47 0.0811539
3 *73 *8:2 0.0131479
4 *73 *56 0.0299131
5 *73 *12:3 0.537531
6 *137:CLK *58 0.0136989
7 *29:5 *58 0.11862
8 *29:6 *23:5 0.02521
9 *73 *69 0.0608188
10 *137:CLK *26:3 0.0183699
11 *29:6 *31:4 0.110186
12 *29:6 *31:5 0.0460753
13 *29:6 *33:4 0.00470901
14 *137:CLK *78 0.0637167
15 *29:5 *34:5 0.111586
16 *29:6 *34:5 0.433555
17 *73 *83 0.010839
18 *73 *89 0.107556
19 *29:6 *46:4 0.0199148
20 *73 3.27123
21 *92:I 0.251251
22 *123:ZN 0.140412
23 *137:CLK 0.480172
24 *29:5 1.93188
25 *29:6 1.56424
26 *29:9 0.0

*RES
1 *73 *29:5 24.9654
2 *92:I *29:9 0.001
3 *92:I *29:6 14.8291
4 *123:ZN *29:8 0.001
5 *123:ZN *29:6 9.60108
6 *137:CLK *29:7 0.001
7 *137:CLK *29:4 0.001
8 *137:CLK *29:5 11.2211
9 *29:5 *29:6 0.742501
*END

*D_NET *30 6.32019

*CONN
*P *74 O *C 4.0000 3.6400
*I *95:I I *C 38.3600 21.0000
*I *124:ZN O *C 31.6400 8.6800 *D gf180mcu_fd_sc_mcu7t5v0__tiel
*I *138:CLK I *C 39.4800 17.6400

*CAP
1 *30:4 *3:2 0.00679478
2 *74 *50 0.00510326
3 *30:4 *140:ZN 0.00345548
4 *30:5 *140:ZN 0.00506856
5 *74 *6:2 0.0730447
6 *30:4 *6:2 0.000853304
7 *30:5 *6:2 0.423623
8 *74 *67 0.036675
9 *30:5 *28:4 0.014016
10 *74 *31:4 0.0371518
11 *30:4 *31:4 0.0206048
12 *30:5 *31:5 0.0600713
13 *30:4 *93:I 0.00569543
14 *30:4 *33:4 0.015225
15 *30:5 *33:4 0.21009
16 *30:5 *34:5 0.396064
17 *74 *79 0.0651747
18 *30:4 *38:4 0.111463
19 *30:5 *45:6 0.00261728
20 *30:5 *45:8 0.00223467
21 *74 2.2341
22 *95:I 0.0344321
23 *30:4 2.35934
24 *30:5 0.197302
25 *30:8 0.0

*RES
1 *74 *30:4 24.157
2 *95:I *30:7 0.001
3 *95:I *30:5 5.97054
4 *124:ZN *30:4 4.5
5 *124:ZN *30:6 0.001
6 *138:CLK *30:5 4.5
7 *138:CLK *30:8 0.001
8 *30:4 *30:5 14.4916
*END

*D_NET *31 9.33743

*CONN
*P *75 O *C 60.7600 4.0000
*I *94:I I *C 32.7600 21.0000
*I *125:ZN O *C 28.2800 9.2400 *D gf180mcu_fd_sc_mcu7t5v0__tiel
*I *137:SETN I *C 23.2400 13.7200

*CAP
1 *31:4 *3:2 0.70384
2 *75 *4:2 0.104184
3 *31:4 *140:ZN 0.0212464
4 *31:4 *6:2 0.892544
5 *75 *7:2 0.00351122
6 *75 *9:2 0.0525979
7 *31:4 *67 0.0207501
8 *31:4 *23:5 0.0094524
9 *75 *28:4 0.000668269
10 *31:5 *28:4 0.0745477
11 *31:4 *29:6 0.110186
12 *31:5 *29:6 0.0460753
13 *31:4 *74 0.0371518
14 *31:4 *30:4 0.0206048
15 *31:5 *30:5 0.0600713
16 *75 *32:6 0.00293685
17 *31:5 *32:6 0.12644
18 *31:4 *33:4 0.00538283
19 *75 *34:6 0.00991739
20 *31:5 *34:5 0.580986
21 *75 *37:2 0.000913619
22 *31:4 *45:6 0.0405424
23 *75 3.21068
24 *94:I 0.0494786
25 *125:ZN 0.509711
26 *137:SETN 0.504507
27 *31:4 0.448818
28 *31:5 1.68969
29 *31:8 0.0

*RES
1 *75 *31:5 18.8229
2 *94:I *31:5 9.24107
3 *94:I *31:8 0.001
4 *125:ZN *31:4 5.97054
5 *125:ZN *31:7 0.001
6 *137:SETN *31:4 15.1811
7 *137:SETN *31:6 0.001
8 *31:4 *31:5 8.18358
*END

*D_NET *32 11.5927

*CONN
*P *76 O *C 54.0400 66.0000
*I *98:I I *C 63.0000 14.8400
*I *126:ZN O *C 54.6000 22.6800 *D gf180mcu_fd_sc_mcu7t5v0__tiel
*I *138:SETN I *C 54.0400 17.6400

*CAP
1 *32:6 *48 0.00196221
2 *32:6 *4:2 0.0696865
3 *32:6 *9:2 0.41424
4 *32:4 *11:2 0.00991882
5 *32:4 *15:2 1.45037
6 *32:6 *15:2 0.537518
7 *32:4 *60 0.650524
8 *32:4 *19:3 0.437635
9 *32:4 *22:3 0.017742
10 *32:6 *28:4 1.19384
11 *32:6 *75 0.00293685
12 *32:6 *31:5 0.12644
13 *32:6 *77 0.0280383
14 *32:6 *34:5 0.0195386
15 *32:6 *34:6 0.0612997
16 *32:6 *37:2 0.0111265
17 *76 *40:6 0.00585203
18 *76 3.65119
19 *98:I 0.201492
20 *126:ZN 0.116665
21 *138:SETN 0.347469
22 *32:4 1.50126
23 *32:5 0.106301
24 *32:6 0.629686
25 *32:9 0.0

*RES
1 *76 *32:4 14.4868
2 *98:I *32:6 12.8411
3 *98:I *32:9 0.001
4 *98:I *32:5 0.001
5 *126:ZN *32:4 13.9211
6 *126:ZN *32:8 0.001
7 *138:SETN *32:6 9.99161
8 *138:SETN *32:7 0.001
9 *32:4 *32:6 5.76804
*END

*D_NET *33 9.2521

*CONN
*P *77 O *C 71.0000 17.0800
*I *93:I I *C 34.4400 10.3600
*I *127:ZN O *C 30.5200 16.5200 *D gf180mcu_fd_sc_mcu7t5v0__tiel
*I *137:RN I *C 25.4800 13.7200

*CAP
1 *33:4 *3:2 0.00760906
2 *77 *4:2 0.894392
3 *93:I *140:ZN 0.0235112
4 *33:4 *6:2 0.966515
5 *93:I *7:2 0.0616503
6 *33:4 *7:2 0.0308749
7 *33:4 *23:5 0.390779
8 *77 *28:4 0.980489
9 *33:4 *28:4 0.029674
10 *33:4 *29:6 0.00470901
11 *93:I *30:4 0.00569543
12 *33:4 *30:4 0.015225
13 *33:4 *30:5 0.21009
14 *33:4 *31:4 0.00538283
15 *77 *32:6 0.0280383
16 *77 *34:5 0.555215
17 *77 *34:6 0.146024
18 *33:4 *34:5 0.0866064
19 *93:I *38:4 0.466776
20 *33:4 *38:4 0.0114431
21 *33:4 *43:3 0.00825867
22 *33:4 *89 0.00265548
23 *33:4 *45:6 0.302447
24 *77 1.68788
25 *93:I 0.0430261
26 *127:ZN 0.0590058
27 *137:RN 0.159005
28 *33:4 1.9095
29 *33:5 0.159619
30 *33:8 0.0

*RES
1 *77 *33:4 11.7514
2 *93:I *33:4 10.8305
3 *93:I *33:8 0.001
4 *127:ZN *33:5 9.0
5 *127:ZN *33:7 0.001
6 *137:RN *33:5 11.6116
7 *137:RN *33:6 0.001
8 *33:4 *33:5 1.44
*END

*D_NET *34 11.372

*CONN
*P *78 O *C 7.0000 4.0000
*I *97:I I *C 65.2400 14.8400
*I *128:ZN O *C 51.8000 14.8400 *D gf180mcu_fd_sc_mcu7t5v0__tiel
*I *138:RN I *C 55.7200 17.6400

*CAP
1 *34:6 *48 0.00400954
2 *34:6 *4:2 0.00703249
3 *34:5 *6:2 0.100923
4 *34:6 *9:2 0.0179773
5 *34:5 *58 0.155904
6 *34:6 *15:2 0.435681
7 *34:5 *62 0.0339666
8 *78 *26:3 0.0186412
9 *34:5 *28:4 1.27625
10 *34:6 *28:4 0.00662787
11 *34:6 *28:5 0.0127963
12 *78 *137:CLK 0.0637167
13 *34:5 *29:5 0.111586
14 *34:5 *29:6 0.433555
15 *34:5 *30:5 0.396064
16 *34:6 *75 0.00991739
17 *34:5 *31:5 0.580986
18 *34:5 *32:6 0.0195386
19 *34:6 *32:6 0.0612997
20 *34:5 *77 0.555215
21 *34:6 *77 0.146024
22 *34:5 *33:4 0.0866064
23 *34:5 *45:6 0.0268956
24 *34:5 *46:4 0.337326
25 *78 4.05325
26 *97:I 0.546325
27 *128:ZN 0.116793
28 *34:4 0.0832965
29 *34:5 0.963417
30 *34:6 0.710338
31 *34:9 0.0

*RES
1 *78 *34:5 28.5348
2 *97:I *34:6 17.5822
3 *97:I *34:9 0.001
4 *97:I *34:4 0.001
5 *128:ZN *34:5 5.43054
6 *128:ZN *34:7 0.001
7 *138:RN *34:6 4.5
8 *138:RN *34:8 0.001
9 *34:5 *34:6 10.3211
*END

*D_NET *35 1.08554

*CONN
*P *79 O *C 20.4400 4.0000
*I *106:Z O *C 20.4400 10.3600 *D gf180mcu_fd_sc_mcu7t5v0__tieh

*CAP
1 *79 *74 0.0651747
2 *79 1.02036
3 *35:3 0.0

*RES
1 *79 *35:3 2.07482
2 *106:Z *35:3 4.5
3 *106:Z *35:2 0.001
*END

*D_NET *36 1.23146

*CONN
*P *80 O *C 4.0000 57.4000
*I *107:Z O *C 10.9200 57.4000 *D gf180mcu_fd_sc_mcu7t5v0__tieh

*CAP
1 *80 *12:3 0.14882
2 *80 *69 0.0373888
3 *80 0.983009
4 *36:2 0.0622462
5 *36:3 0.0

*RES
1 *80 *36:2 6.75483
2 *107:Z *36:2 4.5
3 *107:Z *36:3 0.001
*END

*D_NET *37 1.81034

*CONN
*P *81 O *C 71.0000 23.8000
*I *108:Z O *C 63.5600 21.0000 *D gf180mcu_fd_sc_mcu7t5v0__tieh

*CAP
1 *37:2 *9:2 0.347584
2 *37:2 *75 0.000913619
3 *37:2 *32:6 0.0111265
4 *81 0.427975
5 *108:Z 0.1807
6 *37:2 0.842044
7 *37:3 0.0

*RES
1 *81 *37:2 2.42197
2 *108:Z *37:3 0.001
3 *108:Z *37:2 9.96107
*END

*D_NET *38 1.99656

*CONN
*P *82 O *C 33.8800 4.0000
*I *129:ZN O *C 34.4400 16.5200 *D gf180mcu_fd_sc_mcu7t5v0__tiel
*I *141:I I *C 34.4400 13.7200

*CAP
1 *38:4 *140:ZN 0.0810939
2 *38:4 *7:2 0.00370532
3 *38:4 *30:4 0.111463
4 *38:4 *93:I 0.466776
5 *38:4 *33:4 0.0114431
6 *38:4 *45:6 0.00374894
7 *38:4 *45:8 0.00122183
8 *82 0.379387
9 *38:4 0.937722
10 *38:5 0.0

*RES
1 *82 *38:4 3.12429
2 *129:ZN *38:5 0.001
3 *129:ZN *38:4 5.43054
4 *141:I *38:4 4.5
5 *141:I *38:3 0.001
*END

*D_NET *39 1.16532

*CONN
*P *83 O *C 4.0000 43.9600
*I *109:Z O *C 10.9200 42.2800 *D gf180mcu_fd_sc_mcu7t5v0__tieh

*CAP
1 *83 *69 0.0355777
2 *83 *73 0.010839
3 *83 0.915529
4 *39:3 0.203372

*RES
1 *83 *39:3 7.3559
2 *109:Z *39:3 4.5
3 *109:Z *39:2 0.001
*END

*D_NET *40 6.78405

*CONN
*P *84 O *C 74.2000 66.0000
*I *99:I I *C 32.7600 54.0400
*I *130:ZN O *C 38.9200 56.2800 *D gf180mcu_fd_sc_mcu7t5v0__tiel
*I *142:I I *C 36.6800 52.9200

*CAP
1 *40:5 *5:2 0.0179773
2 *40:6 *5:2 0.101717
3 *40:6 *8:2 0.0189691
4 *40:6 *60 0.68106
5 *40:6 *16:3 0.131607
6 *84 *63 0.111006
7 *40:6 *63 0.0740321
8 *40:6 *22:3 0.790895
9 *84 *68 0.0893254
10 *40:6 *24:4 0.0121293
11 *40:6 *71 0.0351375
12 *40:6 *76 0.00585203
13 *84 2.55747
14 *99:I 0.228332
15 *130:ZN 0.031496
16 *142:I 0.0265782
17 *40:4 0.0835493
18 *40:5 0.646042
19 *40:6 1.14088
20 *40:9 0.0

*RES
1 *84 *40:6 19.7229
2 *99:I *40:7 0.001
3 *99:I *40:4 0.001
4 *99:I *40:5 14.8211
5 *130:ZN *40:9 0.001
6 *130:ZN *40:6 9.0
7 *142:I *40:8 0.001
8 *142:I *40:5 4.89054
9 *40:5 *40:6 6.02357
*END

*D_NET *41 9.05209

*CONN
*P *85 O *C 20.4400 66.0000
*I *91:I I *C 29.4000 33.3200
*I *105:I I *C 32.2000 33.3200
*I *131:ZN O *C 29.4000 37.8000 *D gf180mcu_fd_sc_mcu7t5v0__tiel

*CAP
1 *41:5 *61 0.716449
2 *41:5 *17:4 0.694342
3 *41:5 *23:5 0.075368
4 *41:5 *23:7 0.0146299
5 *85 *69 0.0292262
6 *85 *25:5 1.39543
7 *85 *44:3 1.72368
8 *85 *89 0.0855225
9 *85 2.09952
10 *105:I 0.182823
11 *41:4 0.792131
12 *41:5 1.24297
13 *41:8 0.0

*RES
1 *85 *41:5 23.9159
2 *91:I *41:4 4.5
3 *91:I *41:6 0.001
4 *105:I *41:4 14.4611
5 *105:I *41:8 0.001
6 *131:ZN *41:5 4.5
7 *131:ZN *41:7 0.001
8 *41:4 *41:5 1.47054
*END

*D_NET *42 4.47657

*CONN
*P *86 O *C 27.1600 66.0000
*I *132:ZN O *C 12.6000 48.4400 *D gf180mcu_fd_sc_mcu7t5v0__tiel
*I *145:A1 I *C 12.0400 53.4800

*CAP
1 *42:3 *8:2 0.333671
2 *42:3 *69 0.0595349
3 *42:3 *44:3 0.157791
4 *86 *89 0.153953
5 *86 1.84021
6 *132:ZN 0.0792591
7 *42:3 1.85215
8 *42:5 0.0

*RES
1 *86 *42:3 19.0559
2 *132:ZN *42:3 5.04
3 *132:ZN *42:5 0.001
4 *145:A1 *42:4 0.001
5 *145:A1 *42:3 5.61054
*END

*D_NET *43 2.07594

*CONN
*P *87 O *C 47.3200 4.0000
*I *133:ZN O *C 43.4000 8.6800 *D gf180mcu_fd_sc_mcu7t5v0__tiel
*I *146:A1 I *C 42.2800 14.2800

*CAP
1 *43:3 *7:2 0.23127
2 *43:3 *57 0.0941489
3 *43:3 *28:4 0.00198303
4 *43:3 *33:4 0.00825867
5 *43:3 *45:8 0.0341788
6 *87 0.922321
7 *146:A1 0.0467567
8 *43:3 0.737022
9 *43:5 0.0

*RES
1 *87 *43:3 11.8559
2 *133:ZN *43:3 4.5
3 *133:ZN *43:5 0.001
4 *146:A1 *43:3 6.68015
5 *146:A1 *43:4 0.001
*END

*D_NET *44 6.1634

*CONN
*P *88 O *C 4.0000 30.5200
*I *134:ZN O *C 15.4000 53.4800 *D gf180mcu_fd_sc_mcu7t5v0__tiel
*I *145:A2 I *C 12.6000 52.9200

*CAP
1 *44:3 *8:2 0.158496
2 *44:3 *69 0.00226211
3 *44:3 *85 1.72368
4 *44:3 *42:3 0.157791
5 *88 2.65755
6 *134:ZN 0.0382799
7 *145:A2 0.119411
8 *44:3 1.30593
9 *44:5 0.0

*RES
1 *88 *44:3 21.6064
2 *134:ZN *44:3 9.0
3 *134:ZN *44:5 0.001
4 *145:A2 *44:3 10.1716
5 *145:A2 *44:4 0.001
*END

*D_NET *45 11.7966

*CONN
*P *89 O *C 4.0000 64.1200
*I *102:I I *C 40.0400 10.3600
*I *135:ZN O *C 37.2400 9.2400 *D gf180mcu_fd_sc_mcu7t5v0__tiel
*I *146:A2 I *C 39.4800 13.7200

*CAP
1 *45:6 *3:2 0.645682
2 *45:6 *6:2 0.018236
3 *45:6 *7:2 0.051843
4 *45:8 *7:2 0.0109305
5 *45:8 *57 0.406976
6 *89 *23:5 0.822782
7 *89 *69 0.124467
8 *89 *73 0.107556
9 *45:6 *30:5 0.00261728
10 *45:8 *30:5 0.00223467
11 *45:6 *31:4 0.0405424
12 *89 *33:4 0.00265548
13 *45:6 *33:4 0.302447
14 *45:6 *34:5 0.0268956
15 *45:6 *38:4 0.00374894
16 *45:8 *38:4 0.00122183
17 *89 *85 0.0855225
18 *89 *86 0.153953
19 *45:8 *43:3 0.0341788
20 *89 *46:4 0.0204784
21 *89 4.80345
22 *135:ZN 0.380705
23 *45:6 3.37666
24 *45:8 0.37086

*RES
1 *89 *45:6 41.2875
2 *102:I *45:8 4.5
3 *102:I *45:7 0.001
4 *135:ZN *45:8 14.8516
5 *135:ZN *45:4 0.001
6 *146:A2 *45:6 4.5
7 *146:A2 *45:5 0.001
8 *45:6 *45:8 1.08
*END

*D_NET *46 9.47876

*CONN
*P *90 O *C 71.0000 30.5200
*I *103:I I *C 21.5600 18.2000
*I *136:ZN O *C 17.0800 22.6800 *D gf180mcu_fd_sc_mcu7t5v0__tiel
*I *147:A1 I *C 14.2800 17.6400

*CAP
1 *46:4 *3:2 0.102693
2 *46:5 *3:2 0.371243
3 *90 *9:5 0.0947486
4 *46:4 *62 0.283528
5 *90 *28:5 0.0751587
6 *46:4 *29:6 0.0199148
7 *46:4 *34:5 0.337326
8 *46:4 *89 0.0204784