*SPEF "IEEE 1481-1999"
*DESIGN "spare_logic_block"
*DATE "Tue Dec  6 02:11:51 2022"
*VENDOR "Synopsys Inc."
*PROGRAM "StarRC"
*VERSION "T-2022.03-SP3"
*DESIGN_FLOW "PIN_CAP NONE" "NAME_SCOPE LOCAL"
*DIVIDER /
*DELIMITER :
*BUS_DELIMITER []
*T_UNIT 1.0 NS
*C_UNIT 1.0 FF
*R_UNIT 1.0 OHM
*L_UNIT 1.0 HENRY

// COMMENTS

// CORNER_NAME 
// OPERATING_TEMPERATURE 25
// GLOBAL_TEMPERATURE 25
// TCAD_GRD_FILE /home/passant/caravel-gf180mcu/scripts/gf180-tech/gf180mcu_1p5m_1tm_9k_sp_smim_OPTB_typ.nxtgrd
//   TCAD_TIME_STAMP Tue Dec 26 17:52:29 2017
//   TCADGRD_VERSION 75
// galaxy_comments_begin
//   local_nodeid
// galaxy_comments_end

*NAME_MAP
*47 spare_xfq[0]
*48 spare_xfq[1]
*49 spare_xi[0]
*50 spare_xi[1]
*51 spare_xi[2]
*52 spare_xi[3]
*53 spare_xib
*54 spare_xmx[0]
*55 spare_xmx[1]
*56 spare_xna[0]
*57 spare_xna[1]
*58 spare_xno[0]
*59 spare_xno[1]
*60 spare_xz[0]
*61 spare_xz[10]
*62 spare_xz[11]
*63 spare_xz[12]
*64 spare_xz[13]
*65 spare_xz[14]
*66 spare_xz[15]
*67 spare_xz[16]
*68 spare_xz[17]
*69 spare_xz[18]
*70 spare_xz[19]
*71 spare_xz[1]
*72 spare_xz[20]
*73 spare_xz[21]
*74 spare_xz[22]
*75 spare_xz[23]
*76 spare_xz[24]
*77 spare_xz[25]
*78 spare_xz[26]
*79 spare_xz[27]
*80 spare_xz[28]
*81 spare_xz[29]
*82 spare_xz[2]
*83 spare_xz[30]
*84 spare_xz[3]
*85 spare_xz[4]
*86 spare_xz[5]
*87 spare_xz[6]
*88 spare_xz[7]
*89 spare_xz[8]
*90 spare_xz[9]
*91 ANTENNA_spare_logic_biginv_I
*92 ANTENNA_spare_logic_flop\[0\]_CLK
*93 ANTENNA_spare_logic_flop\[0\]_RN
*94 ANTENNA_spare_logic_flop\[0\]_SETN
*95 ANTENNA_spare_logic_flop\[1\]_CLK
*96 ANTENNA_spare_logic_flop\[1\]_D
*97 ANTENNA_spare_logic_flop\[1\]_RN
*98 ANTENNA_spare_logic_flop\[1\]_SETN
*99 ANTENNA_spare_logic_inv\[3\]_I
*100 ANTENNA_spare_logic_mux\[1\]_I1
*101 ANTENNA_spare_logic_mux\[1\]_S
*102 ANTENNA_spare_logic_nand\[1\]_A2
*103 ANTENNA_spare_logic_nor\[0\]_A1
*104 ANTENNA_spare_logic_nor\[1\]_A1
*105 spare_logic_biginv
*106 spare_logic_const_one[0]
*107 spare_logic_const_one[1]
*108 spare_logic_const_one[2]
*109 spare_logic_const_one[3]
*110 spare_logic_const_zero[0]
*111 spare_logic_const_zero[10]
*112 spare_logic_const_zero[11]
*113 spare_logic_const_zero[12]
*114 spare_logic_const_zero[13]
*115 spare_logic_const_zero[14]
*116 spare_logic_const_zero[15]
*117 spare_logic_const_zero[16]
*118 spare_logic_const_zero[17]
*119 spare_logic_const_zero[18]
*120 spare_logic_const_zero[19]
*121 spare_logic_const_zero[1]
*122 spare_logic_const_zero[20]
*123 spare_logic_const_zero[21]
*124 spare_logic_const_zero[22]
*125 spare_logic_const_zero[23]
*126 spare_logic_const_zero[24]
*127 spare_logic_const_zero[25]
*128 spare_logic_const_zero[26]
*129 spare_logic_const_zero[2]
*130 spare_logic_const_zero[3]
*131 spare_logic_const_zero[4]
*132 spare_logic_const_zero[5]
*133 spare_logic_const_zero[6]
*134 spare_logic_const_zero[7]
*135 spare_logic_const_zero[8]
*136 spare_logic_const_zero[9]
*137 spare_logic_flop[0]
*138 spare_logic_flop[1]
*139 spare_logic_inv[0]
*140 spare_logic_inv[1]
*141 spare_logic_inv[2]
*142 spare_logic_inv[3]
*143 spare_logic_mux[0]
*144 spare_logic_mux[1]
*145 spare_logic_nand[0]
*146 spare_logic_nand[1]
*147 spare_logic_nor[0]
*148 spare_logic_nor[1]
*3 spare_xfq[0]
*4 spare_xfq[1]
*5 spare_xi[0]
*6 spare_xi[1]
*7 spare_xi[2]
*8 spare_xi[3]
*9 spare_xib
*10 spare_xmx[0]
*11 spare_xmx[1]
*12 spare_xna[0]
*13 spare_xna[1]
*14 spare_xno[0]
*15 spare_xno[1]
*16 spare_xz[0]
*17 spare_xz[10]
*18 spare_xz[11]
*19 spare_xz[12]
*20 spare_xz[13]
*21 spare_xz[14]
*22 spare_xz[15]
*23 spare_xz[16]
*24 spare_xz[17]
*25 spare_xz[18]
*26 spare_xz[19]
*27 spare_xz[1]
*28 spare_xz[20]
*29 spare_xz[21]
*30 spare_xz[22]
*31 spare_xz[23]
*32 spare_xz[24]
*33 spare_xz[25]
*34 spare_xz[26]
*35 spare_xz[27]
*36 spare_xz[28]
*37 spare_xz[29]
*38 spare_xz[2]
*39 spare_xz[30]
*40 spare_xz[3]
*41 spare_xz[4]
*42 spare_xz[5]
*43 spare_xz[6]
*44 spare_xz[7]
*45 spare_xz[8]
*46 spare_xz[9]

*PORTS

*47 O
*48 O
*49 O
*50 O
*51 O
*52 O
*53 O
*54 O
*55 O
*56 O
*57 O
*58 O
*59 O
*60 O
*61 O
*62 O
*63 O
*64 O
*65 O
*66 O
*67 O
*68 O
*69 O
*70 O
*71 O
*72 O
*73 O
*74 O
*75 O
*76 O
*77 O
*78 O
*79 O
*80 O
*81 O
*82 O
*83 O
*84 O
*85 O
*86 O
*87 O
*88 O
*89 O
*90 O

*D_NET *3 5.2999

*CONN
*P *47 O *C 4.0000 23.8000
*I *137:Q O *C 29.4000 14.2800 *D gf180mcu_fd_sc_mcu7t5v0__dffrsnq_2

*CAP
1 *3:2 *62 0.0822294
2 *3:2 *67 0.041594
3 *47 *29:5 0.152091
4 *47 *29:6 0.0814459
5 *3:2 *30:4 0.00679538
6 *3:2 *31:4 0.703939
7 *3:2 *33:4 0.00763368
8 *3:2 *45:6 0.645777
9 *3:2 *46:4 0.102848
10 *3:2 *46:5 0.371262
11 *47 1.45011
12 *137:Q 0.614953
13 *3:2 1.03922
14 *3:3 0.0

*RES
1 *47 *3:2 12.0359
2 *137:Q *3:2 17.3411
3 *137:Q *3:3 0.001
*END

*D_NET *4 3.59678

*CONN
*P *48 O *C 67.4800 4.0000
*I *138:Q O *C 60.2000 17.6400 *D gf180mcu_fd_sc_mcu7t5v0__dffrsnq_2

*CAP
1 *48 *9:2 0.120957
2 *4:2 *28:4 0.301785
3 *4:2 *75 0.104184
4 *48 *32:6 0.00196517
5 *4:2 *32:6 0.0697283
6 *48 *77 0.640094
7 *4:2 *77 0.254391
8 *48 *34:6 0.00401014
9 *4:2 *34:6 0.00705424
10 *48 1.54448
11 *4:2 0.548133
12 *4:3 0.0

*RES
1 *48 *4:2 15.8159
2 *138:Q *4:2 4.5
3 *138:Q *4:3 0.001
*END

*D_NET *5 3.35634

*CONN
*P *49 O *C 33.8800 66.0000
*I *139:ZN O *C 40.0400 52.3600 *D gf180mcu_fd_sc_mcu7t5v0__inv_2

*CAP
1 *5:2 *8:2 0.250465
2 *5:2 *11:2 0.516923
3 *5:2 *16:3 0.0698877
4 *5:2 *71 0.184843
5 *5:2 *40:5 0.0179772
6 *5:2 *40:6 0.1018
7 *49 0.379115
8 *139:ZN 0.471651
9 *5:2 1.36368
10 *5:3 0.0

*RES
1 *49 *5:2 4.41483
2 *139:ZN *5:3 0.001
3 *139:ZN *5:2 15.5411
*END

*D_NET *6 5.833

*CONN
*P *50 O *C 27.1600 4.0000
*I *140:ZN O *C 35.0000 28.8400 *D gf180mcu_fd_sc_mcu7t5v0__inv_2

*CAP
1 *6:2 *23:5 0.032112
2 *50 *74 0.00510517
3 *140:ZN *30:4 0.00345548
4 *140:ZN *30:5 0.00506787
5 *6:2 *74 0.0731133
6 *6:2 *30:4 0.000853304
7 *6:2 *30:5 0.423684
8 *140:ZN *31:4 0.0212589
9 *6:2 *31:4 0.892615
10 *140:ZN *93:I 0.0235112
11 *6:2 *33:4 0.966633
12 *6:2 *34:5 0.10103
13 *140:ZN *38:4 0.0810939
14 *6:2 *45:6 0.0182742
15 *50 0.384324
16 *140:ZN 1.38816
17 *6:2 1.41271
18 *6:4 0.0

*RES
1 *50 *6:2 2.04429
2 *140:ZN *6:2 21.9327
3 *140:ZN *6:4 0.001
4 *140:ZN *6:3 0.001
*END

*D_NET *7 4.12914

*CONN
*P *51 O *C 71.0000 10.3600
*I *141:ZN O *C 36.1200 13.1600 *D gf180mcu_fd_sc_mcu7t5v0__inv_2

*CAP
1 *7:2 *57 0.0396162
2 *7:2 *59 0.0156874
3 *7:2 *75 0.00351872
4 *7:2 *93:I 0.0616672
5 *7:2 *33:4 0.0309588
6 *7:2 *38:4 0.00371028
7 *7:2 *43:3 0.231304
8 *7:2 *45:6 0.0518732
9 *7:2 *45:8 0.0109502
10 *51 0.444944
11 *141:ZN 0.459473
12 *7:2 2.77544
13 *7:4 0.0

*RES
1 *51 *7:2 2.93786
2 *141:ZN *7:4 0.001
3 *141:ZN *7:3 0.001
4 *141:ZN *7:2 18.2652
*END

*D_NET *8 3.79943

*CONN
*P *52 O *C 4.0000 50.6800
*I *142:ZN O *C 35.0000 52.3600 *D gf180mcu_fd_sc_mcu7t5v0__inv_2

*CAP
1 *8:2 *5:2 0.250465
2 *8:2 *144:Z 0.0495709
3 *8:2 *11:2 0.0453732
4 *8:2 *12:3 0.211544
5 *8:2 *69 0.010881
6 *8:2 *73 0.0131692
7 *8:2 *40:6 0.0190003
8 *8:2 *42:3 0.333961
9 *8:2 *44:3 0.158641
10 *52 0.424657
11 *142:ZN 0.0603025
12 *8:2 2.22187
13 *8:4 0.0

*RES
1 *52 *8:2 7.16786
2 *142:ZN *8:4 0.001
3 *142:ZN *8:2 12.428
4 *142:ZN *8:3 0.001
*END

*D_NET *9 7.15023

*CONN
*P *53 O *C 71.0000 3.6400
*I *105:ZN O *C 43.9575 34.0350 *D gf180mcu_fd_sc_mcu7t5v0__inv_12

*CAP
1 *9:2 *48 0.120957
2 *9:5 *17:4 0.120629
3 *9:5 *21:3 0.111674
4 *9:5 *28:5 0.00114657
5 *9:2 *75 0.0526445
6 *9:2 *32:6 0.414253
7 *9:2 *34:6 0.0179772
8 *9:2 *37:2 0.347614
9 *9:5 *90 0.0949059
10 *53 0.828012
11 *105:ZN 0.0633891
12 *9:2 3.88203
13 *9:3 0.0773484
14 *9:5 1.01765
15 *9:7 0.0

*RES
1 *53 *9:2 13.1561
2 *105:ZN *9:5 0.001
3 *105:ZN *9:6 0.001
4 *105:ZN *9:7 11.55
5 *9:2 *9:5 23.3164
6 *9:3 *9:6 0.001
7 *9:3 *9:7 0.453177
8 *9:4 *9:5 0.001
*END

*D_NET *10 5.1453

*CONN
*P *54 O *C 74.2000 4.0000
*I *143:Z O *C 65.8000 51.8000 *D gf180mcu_fd_sc_mcu7t5v0__mux2_2

*CAP
1 *143:Z *11:2 0.124658
2 *10:2 *11:2 0.0972706
3 *143:Z *63 0.0447882
4 *54 1.18622
5 *143:Z 0.361623
6 *10:2 3.33074
7 *10:3 0.0

*RES
1 *54 *10:2 12.7414
2 *143:Z *10:3 0.001
3 *143:Z *10:2 19.1027
*END

*D_NET *11 7.47398

*CONN
*P *55 O *C 71.0000 50.6800
*I *144:Z O *C 35.0000 41.7200 *D gf180mcu_fd_sc_mcu7t5v0__mux2_2

*CAP
1 *11:2 *5:2 0.516923
2 *144:Z *8:2 0.0495709
3 *11:2 *8:2 0.0453732
4 *11:2 *143:Z 0.124658
5 *11:2 *10:2 0.0972706
6 *11:2 *16:3 1.76747
7 *11:2 *63 0.0760803
8 *11:2 *19:3 0.0158694
9 *11:2 *20:3 0.651979
10 *11:2 *22:3 0.00455081
11 *144:Z *23:7 0.0146081
12 *144:Z *25:6 0.00128684
13 *144:Z *71 0.0339591
14 *11:2 *32:4 0.00991882
15 *55 0.386454
16 *144:Z 1.12844
17 *11:2 2.54957
18 *11:3 0.0

*RES
1 *55 *11:2 4.55143
2 *144:Z *11:2 19.62
3 *144:Z *11:3 0.001
*END

*D_NET *12 2.80584

*CONN
*P *56 O *C 0.2800 66.0000
*I *145:ZN O *C 9.8000 54.0400 *D gf180mcu_fd_sc_mcu7t5v0__nand2_2

*CAP
1 *12:3 *8:2 0.211544
2 *12:3 *69 0.162882
3 *56 *73 0.0299193
4 *12:3 *73 0.537642
5 *12:3 *80 0.149155
6 *56 0.379115
7 *145:ZN 0.327524
8 *12:3 1.00806
9 *12:4 0.0

*RES
1 *56 *12:3 3.87483
2 *145:ZN *12:3 16.6211
3 *145:ZN *12:4 0.001
4 *145:ZN *12:2 0.001
*END

*D_NET *13 1.62251

*CONN
*P *57 O *C 40.6000 4.0000
*I *146:ZN O *C 40.6000 13.1600 *D gf180mcu_fd_sc_mcu7t5v0__nand2_2

*CAP
1 *57 *7:2 0.0396162
2 *57 *43:3 0.0941763
3 *57 *45:8 0.406999
4 *57 1.08171
5 *13:3 0.0

*RES
1 *57 *13:3 2.97482
2 *146:ZN *13:3 4.5
3 *146:ZN *13:2 0.001
*END

*D_NET *14 1.14655

*CONN
*P *58 O *C 4.0000 17.0800
*I *147:ZN O *C 11.4800 17.0800 *D gf180mcu_fd_sc_mcu7t5v0__nor2_2

*CAP
1 *58 *62 0.0122009
2 *58 *137:CLK 0.0136987
3 *58 *29:5 0.118832
4 *58 *34:5 0.156022
5 *58 0.756014
6 *14:2 0.0897842
7 *14:3 0.0

*RES
1 *58 *14:2 6.93482
2 *147:ZN *14:2 4.5
3 *147:ZN *14:3 0.001
*END

*D_NET *15 5.99771

*CONN
*P *59 O *C 54.0400 4.0000
*I *148:ZN O *C 55.1275 35.9450 *D gf180mcu_fd_sc_mcu7t5v0__nor2_2

*CAP
1 *59 *7:2 0.0156874
2 *15:2 *19:3 0.0373909
3 *15:2 *32:4 1.45041
4 *15:2 *32:6 0.537522
5 *15:2 *34:6 0.435681
6 *59 0.968729
7 *15:2 2.55229
8 *15:9 0.0

*RES
1 *59 *15:2 8.96787
2 *148:ZN *15:3 0.001
3 *148:ZN *15:7 0.001
4 *15:2 *15:5 6.24697
5 *15:4 *15:5 0.001
6 *15:5 *15:7 0.001
7 *15:6 *15:7 0.001
8 *15:7 *15:9 0.001
9 *15:7 *15:8 0.001
*END

*D_NET *16 6.707

*CONN
*P *60 O *C 71.0000 57.4000
*I *110:ZN O *C 40.0400 48.4400 *D gf180mcu_fd_sc_mcu7t5v0__tiel
*I *139:I I *C 41.1600 52.9200

*CAP
1 *16:3 *5:2 0.0698877
2 *16:3 *11:2 1.76747
3 *60 *63 0.00521614
4 *60 *19:3 0.0140409
5 *60 *20:3 0.00270073
6 *16:3 *20:3 0.018103
7 *60 *22:3 0.240723
8 *60 *24:4 0.00196369
9 *16:3 *71 0.157395
10 *60 *32:4 0.65056
11 *60 *40:6 0.681345
12 *16:3 *40:6 0.131989
13 *60 1.31069
14 *110:ZN 0.121296
15 *16:3 1.53363
16 *16:5 0.0

*RES
1 *60 *16:3 24.8641
2 *110:ZN *16:4 0.001
3 *110:ZN *16:3 6.075
4 *139:I *16:5 0.001
5 *139:I *16:3 4.71054
*END

*D_NET *17 8.1191

*CONN
*P *61 O *C 4.0000 37.2400
*I *104:I I *C 50.6800 33.8800
*I *111:ZN O *C 48.4400 37.8000 *D gf180mcu_fd_sc_mcu7t5v0__tiel
*I *148:A1 I *C 52.9200 37.2400

*CAP
1 *17:4 *9:5 0.120629
2 *104:I *19:3 0.00303845
3 *104:I *21:3 0.00447707
4 *17:4 *21:3 0.619327
5 *17:4 *23:5 0.961349
6 *17:4 *23:7 0.00704119
7 *61 *25:5 0.42736
8 *17:4 *25:5 0.392856
9 *17:4 *25:6 0.0321155
10 *104:I *28:5 0.0311951
11 *17:4 *28:5 0.0828006
12 *61 *41:5 0.716515
13 *17:4 *41:5 0.694431
14 *61 1.03788
15 *104:I 0.189195
16 *111:ZN 0.0797815
17 *148:A1 0.0941714
18 *17:4 2.29579
19 *17:5 0.329156
20 *17:8 0.0

*RES
1 *61 *17:4 14.2843
2 *104:I *17:5 9.96107
3 *104:I *17:7 0.001
4 *111:ZN *17:4 9.24107
5 *111:ZN *17:6 0.001
6 *148:A1 *17:5 9.99161
7 *148:A1 *17:8 0.001
8 *17:4 *17:5 0.900001
*END

*D_NET *18 2.58376

*CONN
*P *62 O *C 13.7200 4.0000
*I *112:ZN O *C 18.2000 16.5200 *D gf180mcu_fd_sc_mcu7t5v0__tiel
*I *147:A2 I *C 13.7200 18.2000

*CAP
1 *62 *3:2 0.0822294
2 *62 *58 0.0122009
3 *62 *26:3 0.0460737
4 *62 *34:5 0.0340248
5 *62 *46:4 0.283625
6 *62 1.84807
7 *112:ZN 0.104196
8 *18:3 0.17334
9 *18:5 0.0

*RES
1 *62 *18:3 4.02429
2 *112:ZN *18:5 0.001
3 *112:ZN *18:3 15.0011
4 *147:A2 *18:4 0.001
5 *147:A2 *18:3 5.07054
*END

*D_NET *19 5.96853

*CONN
*P *63 O *C 67.4800 66.0000
*I *113:ZN O *C 56.8400 40.0400 *D gf180mcu_fd_sc_mcu7t5v0__tiel
*I *148:A2 I *C 55.1600 37.2400

*CAP
1 *63 *143:Z 0.0447882
2 *63 *11:2 0.0760803
3 *19:3 *11:2 0.0158694
4 *19:3 *15:2 0.0373909
5 *63 *60 0.00521614
6 *19:3 *60 0.0140409
7 *19:3 *104:I 0.00303845
8 *63 *20:3 0.00184714
9 *19:3 *20:3 0.621937
10 *19:3 *21:3 0.0853703
11 *63 *66 0.0107127
12 *63 *22:3 0.0707808
13 *19:3 *22:3 0.00338434
14 *19:3 *24:4 0.00215218
15 *19:3 *72 0.0569169
16 *19:3 *32:4 0.437716
17 *63 *84 0.111103
18 *63 *40:6 0.0741512
19 *63 1.95401
20 *113:ZN 0.0363602
21 *148:A2 0.243819
22 *19:3 2.06185
23 *19:5 0.0

*RES
1 *63 *19:3 25.4475
2 *113:ZN *19:3 9.0
3 *113:ZN *19:5 0.001
4 *148:A2 *19:3 10.5316
5 *148:A2 *19:4 0.001
*END

*D_NET *20 5.08442

*CONN
*P *64 O *C 47.3200 66.0000
*I *114:ZN O *C 60.7600 48.4400 *D gf180mcu_fd_sc_mcu7t5v0__tiel
*I *143:I0 I *C 60.2000 53.4800

*CAP
1 *20:3 *11:2 0.651979
2 *20:3 *60 0.00270073
3 *20:3 *16:3 0.018103
4 *20:3 *63 0.00184714
5 *20:3 *19:3 0.621937
6 *20:3 *24:4 0.00777918
7 *64 2.53777
8 *114:ZN 0.113537
9 *20:3 1.12877
10 *20:5 0.0

*RES
1 *64 *20:3 18.3359
2 *114:ZN *20:3 5.04
3 *114:ZN *20:5 0.001
4 *143:I0 *20:4 0.001
5 *143:I0 *20:3 5.61054
*END

*D_NET *21 4.26784

*CONN
*P *65 O *C 71.0000 37.2400
*I *115:ZN O *C 42.8400 38.3600 *D gf180mcu_fd_sc_mcu7t5v0__tiel
*I *144:I0 I *C 40.6000 40.6000

*CAP
1 *21:3 *9:5 0.111674
2 *21:3 *104:I 0.00447707
3 *21:3 *17:4 0.619327
4 *21:3 *19:3 0.0853703
5 *21:3 *25:5 0.00233992
6 *21:3 *25:6 0.0856829
7 *21:3 *71 0.100226
8 *65 1.58039
9 *115:ZN 0.047337
10 *144:I0 0.136429
11 *21:3 1.49458
12 *21:5 0.0

*RES
1 *65 *21:3 9.41144
2 *115:ZN *21:5 0.001
3 *115:ZN *21:3 9.0
4 *144:I0 *21:4 0.001
5 *144:I0 *21:3 10.5316
*END

*D_NET *22 3.74353

*CONN
*P *66 O *C 60.7600 66.0000
*I *116:ZN O *C 56.8400 54.0400 *D gf180mcu_fd_sc_mcu7t5v0__tiel
*I *143:I1 I *C 64.1200 52.9200

*CAP
1 *22:3 *11:2 0.00455081
2 *22:3 *60 0.240723
3 *66 *63 0.0107127
4 *22:3 *63 0.0707808
5 *22:3 *19:3 0.00338434
6 *66 *24:4 0.316981
7 *22:3 *24:4 0.00280517
8 *22:3 *32:4 0.0177578
9 *22:3 *40:6 0.790966
10 *66 0.745607
11 *116:ZN 0.329804
12 *143:I1 0.186721
13 *22:3 1.02273
14 *22:5 0.0

*RES
1 *66 *22:3 7.83483
2 *116:ZN *22:3 10.8916
3 *116:ZN *22:4 0.001
4 *143:I1 *22:3 11.0716
5 *143:I1 *22:5 0.001
*END

*D_NET *23 9.20405

*CONN
*P *67 O *C 4.0000 10.3600
*I *100:I I *C 31.6400 40.0400
*I *117:ZN O *C 32.7600 37.8000 *D gf180mcu_fd_sc_mcu7t5v0__tiel
*I *144:I1 I *C 36.6800 41.1600

*CAP
1 *67 *3:2 0.041594
2 *23:5 *6:2 0.032112
3 *23:7 *144:Z 0.0146081
4 *23:5 *17:4 0.961349
5 *23:7 *17:4 0.00704119
6 *23:5 *25:5 0.0172834
7 *23:7 *25:5 0.0809354
8 *23:7 *25:6 0.0573222
9 *67 *70 0.368923
10 *23:7 *71 0.00199261
11 *23:5 *29:6 0.0252216
12 *67 *74 0.0367233
13 *67 *31:4 0.0208007
14 *23:5 *31:4 0.00946047
15 *23:5 *33:4 0.390779
16 *23:5 *41:5 0.075455
17 *23:7 *41:5 0.0146305
18 *23:5 *89 0.822924
19 *67 2.82399
20 *117:ZN 0.114517
21 *144:I1 0.26643
22 *23:4 0.0776039
23 *23:5 2.17073
24 *23:7 0.771623
25 *23:9 0.0

*RES
1 *67 *23:5 26.4664
2 *100:I *23:7 4.5
3 *100:I *23:6 0.001
4 *100:I *23:4 0.001
5 *117:ZN *23:8 0.001
6 *117:ZN *23:5 9.81161
7 *144:I1 *23:9 0.001
8 *144:I1 *23:7 15.5716
9 *23:5 *23:7 5.61054
*END

*D_NET *24 2.48085

*CONN
*P *68 O *C 71.0000 64.1200
*I *118:ZN O *C 62.4400 56.2800 *D gf180mcu_fd_sc_mcu7t5v0__tiel
*I *143:S I *C 63.0000 53.4800

*CAP
1 *24:4 *60 0.00196369
2 *24:4 *19:3 0.00215218
3 *24:4 *20:3 0.00777918
4 *24:4 *66 0.316981
5 *24:4 *22:3 0.00280517
6 *68 *84 0.0893818
7 *24:4 *40:6 0.0121316
8 *68 0.721264
9 *143:S 0.0822849
10 *24:4 1.24411
11 *24:5 0.0

*RES
1 *68 *24:4 9.83251
2 *118:ZN *24:4 4.5
3 *118:ZN *24:3 0.001
4 *143:S *24:5 0.001
5 *143:S *24:4 5.43054
*END

*D_NET *25 9.18755

*CONN
*P *69 O *C 13.7200 66.0000
*I *101:I I *C 43.4000 40.0400
*I *119:ZN O *C 35.5600 38.3600 *D gf180mcu_fd_sc_mcu7t5v0__tiel
*I *144:S I *C 37.8000 40.6000

*CAP
1 *69 *8:2 0.010881
2 *25:6 *144:Z 0.00128684
3 *69 *12:3 0.162882
4 *25:5 *61 0.42736
5 *25:5 *17:4 0.392856
6 *25:6 *17:4 0.0321155
7 *25:5 *21:3 0.00233992
8 *25:6 *21:3 0.0856829
9 *25:5 *23:5 0.0172834
10 *25:5 *23:7 0.0809354
11 *25:6 *23:7 0.0573222
12 *25:6 *71 0.05055
13 *69 *73 0.0608584
14 *69 *80 0.0373974
15 *69 *83 0.0355852
16 *69 *85 0.0292519
17 *25:5 *85 1.39561
18 *69 *42:3 0.0595964
19 *69 *44:3 0.00226634
20 *69 *89 0.124558
21 *69 3.1865
22 *101:I 0.29711
23 *119:ZN 0.0293473
24 *25:4 0.0783449
25 *25:5 1.90988
26 *25:6 0.619759
27 *25:9 0.0

*RES
1 *69 *25:5 23.9738
2 *101:I *25:6 15.3611
3 *101:I *25:9 0.001
4 *101:I *25:4 0.001
5 *119:ZN *25:5 9.0
6 *119:ZN *25:7 0.001
7 *144:S *25:8 0.001
8 *144:S *25:6 4.71054
9 *25:5 *25:6 5.82107
*END

*D_NET *26 2.49715

*CONN
*P *70 O *C 0.2800 4.0000
*I *120:ZN O *C 10.9200 8.6800 *D gf180mcu_fd_sc_mcu7t5v0__tiel
*I *137:D I *C 10.9200 13.7200

*CAP
1 *26:3 *62 0.0460737
2 *70 *67 0.368923
3 *26:3 *137:CLK 0.0183814
4 *26:3 *78 0.0186714
5 *70 1.06067
6 *26:3 0.984426
7 *26:5 0.0

*RES
1 *70 *26:3 14.0159
2 *120:ZN *26:3 4.5
3 *120:ZN *26:4 0.001
4 *137:D *26:5 0.001
5 *137:D *26:3 6.15054
*END

*D_NET *27 5.14768

*CONN
*P *71 O *C 40.6000 66.0000
*I *121:ZN O *C 39.4800 37.8000 *D gf180mcu_fd_sc_mcu7t5v0__tiel
*I *140:I I *C 36.6800 29.4000

*CAP
1 *71 *5:2 0.184843
2 *71 *144:Z 0.0339591
3 *71 *16:3 0.157395
4 *71 *21:3 0.100226
5 *71 *23:7 0.00199261
6 *71 *25:6 0.05055
7 *71 *40:6 0.0351521
8 *71 1.72961
9 *140:I 0.108505
10 *27:3 2.74545
11 *27:5 0.0

*RES
1 *71 *27:3 9.4468
2 *121:ZN *27:5 0.001
3 *121:ZN *27:3 4.5
4 *140:I *27:3 8.0325
5 *140:I *27:4 0.001
*END

*D_NET *28 10.8435

*CONN
*P *72 O *C 71.0000 43.9600
*I *96:I I *C 63.0000 18.2000
*I *122:ZN O *C 47.8800 14.8400 *D gf180mcu_fd_sc_mcu7t5v0__tiel
*I *138:D I *C 42.2800 17.6400

*CAP
1 *28:4 *4:2 0.301785
2 *28:5 *9:5 0.00114657
3 *28:5 *104:I 0.0311951
4 *28:5 *17:4 0.0828006
5 *72 *19:3 0.0569169
6 *28:4 *30:5 0.0140317
7 *28:4 *75 0.000668269
8 *28:4 *31:5 0.0746768
9 *28:4 *32:6 1.19397
10 *28:4 *77 0.980749
11 *28:4 *33:4 0.0296788
12 *28:4 *34:5 1.2765
13 *28:4 *34:6 0.00664051
14 *28:5 *34:6 0.0128247
15 *28:4 *43:3 0.00198353
16 *28:5 *90 0.0752135
17 *72 3.35174
18 *96:I 0.0733145
19 *138:D 0.0698602
20 *28:4 0.672767
21 *28:5 2.53502
22 *28:8 0.0

*RES
1 *72 *28:5 20.3609
2 *96:I *28:4 14.0705
3 *96:I *28:8 0.001
4 *122:ZN *28:5 5.43054
5 *122:ZN *28:7 0.001
6 *138:D *28:4 10.8305
7 *138:D *28:6 0.001
8 *28:4 *28:5 4.5
*END

*D_NET *29 9.58987

*CONN
*P *73 O *C 7.0000 66.0000
*I *92:I I *C 27.1600 18.2000
*I *123:ZN O *C 11.4800 22.1200 *D gf180mcu_fd_sc_mcu7t5v0__tiel
*I *137:CLK I *C 9.2400 13.7200

*CAP
1 *29:5 *47 0.152091
2 *29:6 *47 0.0814459
3 *73 *8:2 0.0131692
4 *73 *56 0.0299193
5 *73 *12:3 0.537642
6 *137:CLK *58 0.0136987
7 *29:5 *58 0.118832
8 *29:6 *23:5 0.0252216
9 *73 *69 0.0608584
10 *137:CLK *26:3 0.0183814
11 *29:6 *31:4 0.110202
12 *29:6 *31:5 0.0460949
13 *29:6 *33:4 0.00470802
14 *137:CLK *78 0.0637655
15 *29:5 *34:5 0.111677
16 *29:6 *34:5 0.43391
17 *73 *83 0.0108471
18 *73 *89 0.107646
19 *29:6 *46:4 0.0199584
20 *73 3.26926
21 *92:I 0.251276
22 *123:ZN 0.140384
23 *137:CLK 0.48001
24 *29:5 1.92872
25 *29:6 1.56015
26 *29:9 0.0

*RES
1 *73 *29:5 24.9654
2 *92:I *29:9 0.001
3 *92:I *29:6 14.8291
4 *123:ZN *29:8 0.001
5 *123:ZN *29:6 9.60108
6 *137:CLK *29:7 0.001
7 *137:CLK *29:4 0.001
8 *137:CLK *29:5 11.2211
9 *29:5 *29:6 0.742501
*END

*D_NET *30 6.31701

*CONN
*P *74 O *C 4.0000 3.6400
*I *95:I I *C 38.3600 21.0000
*I *124:ZN O *C 31.6400 8.6800 *D gf180mcu_fd_sc_mcu7t5v0__tiel
*I *138:CLK I *C 39.4800 17.6400

*CAP
1 *30:4 *3:2 0.00679538
2 *74 *50 0.00510517
3 *30:4 *140:ZN 0.00345548
4 *30:5 *140:ZN 0.00506787
5 *74 *6:2 0.0731133
6 *30:4 *6:2 0.000853304
7 *30:5 *6:2 0.423684
8 *74 *67 0.0367233
9 *30:5 *28:4 0.0140317
10 *74 *31:4 0.0371729
11 *30:4 *31:4 0.0205967
12 *30:5 *31:5 0.06012
13 *30:4 *93:I 0.0057067
14 *30:4 *33:4 0.0152249
15 *30:5 *33:4 0.210182
16 *30:5 *34:5 0.396206
17 *74 *79 0.0652336
18 *30:4 *38:4 0.111547
19 *30:5 *45:6 0.00262677
20 *30:5 *45:8 0.00223464
21 *74 2.23149
22 *95:I 0.0344295
23 *30:4 2.35854
24 *30:5 0.196864
25 *30:8 0.0

*RES
1 *74 *30:4 24.157
2 *95:I *30:7 0.001
3 *95:I *30:5 5.97054
4 *124:ZN *30:4 4.5
5 *124:ZN *30:6 0.001
6 *138:CLK *30:5 4.5
7 *138:CLK *30:8 0.001
8 *30:4 *30:5 14.4916
*END

*D_NET *31 9.32989

*CONN
*P *75 O *C 60.7600 4.0000
*I *94:I I *C 32.7600 21.0000
*I *125:ZN O *C 28.2800 9.2400 *D gf180mcu_fd_sc_mcu7t5v0__tiel
*I *137:SETN I *C 23.2400 13.7200

*CAP
1 *31:4 *3:2 0.703939
2 *75 *4:2 0.104184
3 *31:4 *140:ZN 0.0212589
4 *31:4 *6:2 0.892615
5 *75 *7:2 0.00351872
6 *75 *9:2 0.0526445
7 *31:4 *67 0.0208007
8 *31:4 *23:5 0.00946047
9 *75 *28:4 0.000668269
10 *31:5 *28:4 0.0746768
11 *31:4 *29:6 0.110202
12 *31:5 *29:6 0.0460949
13 *31:4 *74 0.0371729
14 *31:4 *30:4 0.0205967
15 *31:5 *30:5 0.06012
16 *75 *32:6 0.00293685
17 *31:5 *32:6 0.126553
18 *31:4 *33:4 0.00538282
19 *75 *34:6 0.00993661
20 *31:5 *34:5 0.581419
21 *75 *37:2 0.000914378
22 *31:4 *45:6 0.0406126
23 *75 3.20807
24 *94:I 0.0494846
25 *125:ZN 0.509703
26 *137:SETN 0.504429
27 *31:4 0.448187
28 *31:5 1.6843
29 *31:8 0.0

*RES
1 *75 *31:5 18.8229
2 *94:I *31:5 9.24107
3 *94:I *31:8 0.001
4 *125:ZN *31:4 5.97054
5 *125:ZN *31:7 0.001
6 *137:SETN *31:4 15.1811
7 *137:SETN *31:6 0.001
8 *31:4 *31:5 8.18358
*END

*D_NET *32 11.5917

*CONN
*P *76 O *C 54.0400 66.0000
*I *98:I I *C 63.0000 14.8400
*I *126:ZN O *C 54.6000 22.6800 *D gf180mcu_fd_sc_mcu7t5v0__tiel
*I *138:SETN I *C 54.0400 17.6400

*CAP
1 *32:6 *48 0.00196517
2 *32:6 *4:2 0.0697283
3 *32:6 *9:2 0.414253
4 *32:4 *11:2 0.00991882
5 *32:4 *15:2 1.45041
6 *32:6 *15:2 0.537522
7 *32:4 *60 0.65056
8 *32:4 *19:3 0.437716
9 *32:4 *22:3 0.0177578
10 *32:6 *28:4 1.19397
11 *32:6 *75 0.00293685
12 *32:6 *31:5 0.126553
13 *32:6 *77 0.028084
14 *32:6 *34:5 0.0195592
15 *32:6 *34:6 0.0613046
16 *32:6 *37:2 0.0111344
17 *76 *40:6 0.00586453
18 *76 3.6506
19 *98:I 0.201468
20 *126:ZN 0.11663
21 *138:SETN 0.347469
22 *32:4 1.5009
23 *32:5 0.106299
24 *32:6 0.629085
25 *32:9 0.0

*RES
1 *76 *32:4 14.4868
2 *98:I *32:6 12.8411
3 *98:I *32:9 0.001
4 *98:I *32:5 0.001
5 *126:ZN *32:4 13.9211
6 *126:ZN *32:8 0.001
7 *138:SETN *32:6 9.99161
8 *138:SETN *32:7 0.001
9 *32:4 *32:6 5.76804
*END

*D_NET *33 9.25002

*CONN
*P *77 O *C 71.0000 17.0800
*I *93:I I *C 34.4400 10.3600
*I *127:ZN O *C 30.5200 16.5200 *D gf180mcu_fd_sc_mcu7t5v0__tiel
*I *137:RN I *C 25.4800 13.7200

*CAP
1 *33:4 *3:2 0.00763368
2 *77 *48 0.640094
3 *77 *4:2 0.254391
4 *93:I *140:ZN 0.0235112
5 *33:4 *6:2 0.966633
6 *93:I *7:2 0.0616672
7 *33:4 *7:2 0.0309588
8 *33:4 *23:5 0.390779
9 *77 *28:4 0.980749
10 *33:4 *28:4 0.0296788
11 *33:4 *29:6 0.00470802
12 *93:I *30:4 0.0057067
13 *33:4 *30:4 0.0152249
14 *33:4 *30:5 0.210182
15 *33:4 *31:4 0.00538282
16 *77 *32:6 0.028084
17 *77 *34:5 0.555366
18 *77 *34:6 0.146233
19 *33:4 *34:5 0.0867186
20 *93:I *38:4 0.466832
21 *33:4 *38:4 0.0114486
22 *33:4 *43:3 0.00826982
23 *33:4 *89 0.00265903
24 *33:4 *45:6 0.302703
25 *77 1.68588
26 *93:I 0.042901
27 *127:ZN 0.059003
28 *137:RN 0.159021
29 *33:4 1.90798
30 *33:5 0.159626
31 *33:8 0.0

*RES
1 *77 *33:4 11.7514
2 *93:I *33:4 10.8305
3 *93:I *33:8 0.001
4 *127:ZN *33:5 9.0
5 *127:ZN *33:7 0.001
6 *137:RN *33:5 11.6116
7 *137:RN *33:6 0.001
8 *33:4 *33:5 1.44
*END

*D_NET *34 11.3687

*CONN
*P *78 O *C 7.0000 4.0000
*I *97:I I *C 65.2400 14.8400
*I *128:ZN O *C 51.8000 14.8400 *D gf180mcu_fd_sc_mcu7t5v0__tiel
*I *138:RN I *C 55.7200 17.6400

*CAP
1 *34:6 *48 0.00401014
2 *34:6 *4:2 0.00705424
3 *34:5 *6:2 0.10103
4 *34:6 *9:2 0.0179772
5 *34:5 *58 0.156022
6 *34:6 *15:2 0.435681
7 *34:5 *62 0.0340248
8 *78 *26:3 0.0186714
9 *34:5 *28:4 1.2765
10 *34:6 *28:4 0.00664051
11 *34:6 *28:5 0.0128247
12 *78 *137:CLK 0.0637655
13 *34:5 *29:5 0.111677
14 *34:5 *29:6 0.43391
15 *34:5 *30:5 0.396206
16 *34:6 *75 0.00993661
17 *34:5 *31:5 0.581419
18 *34:5 *32:6 0.0195592
19 *34:6 *32:6 0.0613046
20 *34:5 *77 0.555366
21 *34:6 *77 0.146233
22 *34:5 *33:4 0.0867186
23 *34:5 *45:6 0.026979
24 *34:5 *46:4 0.337483
25 *78 4.05197
26 *97:I 0.546158
27 *128:ZN 0.116776
28 *34:4 0.0832996
29 *34:5 0.95996
30 *34:6 0.709548
31 *34:9 0.0

*RES
1 *78 *34:5 28.5348
2 *97:I *34:9 0.001
3 *97:I *34:4 0.001
4 *97:I *34:6 17.5822
5 *128:ZN *34:7 0.001
6 *128:ZN *34:5 5.43054
7 *138:RN *34:6 4.5
8 *138:RN *34:8 0.001
9 *34:5 *34:6 10.3211
*END

*D_NET *35 1.0851

*CONN
*P *79 O *C 20.4400 4.0000
*I *106:Z O *C 20.4400 10.3600 *D gf180mcu_fd_sc_mcu7t5v0__tieh

*CAP
1 *79 *74 0.0652336
2 *79 1.01986
3 *35:3 0.0

*RES
1 *79 *35:3 2.07482
2 *106:Z *35:3 4.5
3 *106:Z *35:2 0.001
*END

*D_NET *36 1.23046

*CONN
*P *80 O *C 4.0000 57.4000
*I *107:Z O *C 10.9200 57.4000 *D gf180mcu_fd_sc_mcu7t5v0__tieh

*CAP
1 *80 *12:3 0.149155
2 *80 *69 0.0373974
3 *80 0.981681
4 *36:2 0.0622306
5 *36:3 0.0

*RES
1 *80 *36:2 6.75483
2 *107:Z *36:2 4.5
3 *107:Z *36:3 0.001
*END

*D_NET *37 1.8077

*CONN
*P *81 O *C 71.0000 23.8000
*I *108:Z O *C 63.5600 21.0000 *D gf180mcu_fd_sc_mcu7t5v0__tieh

*CAP
1 *37:2 *9:2 0.347614
2 *37:2 *75 0.000914378
3 *37:2 *32:6 0.0111344
4 *81 0.42756
5 *108:Z 0.18071
6 *37:2 0.839765
7 *37:3 0.0

*RES
1 *81 *37:2 2.42197
2 *108:Z *37:3 0.001
3 *108:Z *37:2 9.96107
*END

*D_NET *38 1.99593

*CONN
*P *82 O *C 33.8800 4.0000
*I *129:ZN O *C 34.4400 16.5200 *D gf180mcu_fd_sc_mcu7t5v0__tiel
*I *141:I I *C 34.4400 13.7200

*CAP
1 *38:4 *140:ZN 0.0810939
2 *38:4 *7:2 0.00371028
3 *38:4 *30:4 0.111547
4 *38:4 *93:I 0.466832
5 *38:4 *33:4 0.0114486
6 *38:4 *45:6 0.00375104
7 *38:4 *45:8 0.00122245
8 *82 0.379115
9 *38:4 0.937207
10 *38:5 0.0

*RES
1 *82 *38:4 3.12429
2 *129:ZN *38:5 0.001
3 *129:ZN *38:4 5.43054
4 *141:I *38:4 4.5
5 *141:I *38:3 0.001
*END

*D_NET *39 1.16414

*CONN
*P *83 O *C 4.0000 43.9600
*I *109:Z O *C 10.9200 42.2800 *D gf180mcu_fd_sc_mcu7t5v0__tieh

*CAP
1 *83 *69 0.0355852
2 *83 *73 0.0108471
3 *83 0.914421
4 *39:3 0.203292

*RES
1 *83 *39:3 7.3559
2 *109:Z *39:3 4.5
3 *109:Z *39:2 0.001
*END

*D_NET *40 6.78158

*CONN
*P *84 O *C 74.2000 66.0000
*I *99:I I *C 32.7600 54.0400
*I *130:ZN O *C 38.9200 56.2800 *D gf180mcu_fd_sc_mcu7t5v0__tiel
*I *142:I I *C 36.6800 52.9200

*CAP
1 *40:5 *5:2 0.0179772
2 *40:6 *5:2 0.1018
3 *40:6 *8:2 0.0190003
4 *40:6 *60 0.681345
5 *40:6 *16:3 0.131989
6 *84 *63 0.111103
7 *40:6 *63 0.0741512
8 *40:6 *22:3 0.790966
9 *84 *68 0.0893818
10 *40:6 *24:4 0.0121316
11 *40:6 *71 0.0351521
12 *40:6 *76 0.00586453
13 *84 2.55615
14 *99:I 0.228212
15 *130:ZN 0.0314943
16 *142:I 0.0265765
17 *40:4 0.0835523
18 *40:5 0.645848
19 *40:6 1.13889
20 *40:9 0.0

*RES
1 *84 *40:6 19.7229
2 *99:I *40:5 14.8211
3 *99:I *40:7 0.001
4 *99:I *40:4 0.001
5 *130:ZN *40:6 9.0
6 *130:ZN *40:9 0.001
7 *142:I *40:5 4.89054
8 *142:I *40:8 0.001
9 *40:5 *40:6 6.02357
*END

*D_NET *41 9.05097

*CONN
*P *85 O *C 20.4400 66.0000
*I *91:I I *C 29.4000 33.3200
*I *105:I I *C 32.2000 33.3200
*I *131:ZN O *C 29.4000 37.8000 *D gf180mcu_fd_sc_mcu7t5v0__tiel

*CAP
1 *41:5 *61 0.716515
2 *41:5 *17:4 0.694431
3 *41:5 *23:5 0.075455
4 *41:5 *23:7 0.0146305
5 *85 *69 0.0292519
6 *85 *25:5 1.39561
7 *85 *44:3 1.72376
8 *85 *89 0.0855852
9 *85 2.09827
10 *105:I 0.182812
11 *41:4 0.792086
12 *41:5 1.24257
13 *41:8 0.0

*RES
1 *85 *41:5 23.9159
2 *91:I *41:4 4.5
3 *91:I *41:6 0.001
4 *105:I *41:4 14.4611
5 *105:I *41:8 0.001
6 *131:ZN *41:5 4.5
7 *131:ZN *41:7 0.001
8 *41:4 *41:5 1.47054
*END

*D_NET *42 4.47506

*CONN
*P *86 O *C 27.1600 66.0000
*I *132:ZN O *C 12.6000 48.4400 *D gf180mcu_fd_sc_mcu7t5v0__tiel
*I *145:A1 I *C 12.0400 53.4800

*CAP
1 *42:3 *8:2 0.333961
2 *42:3 *69 0.0595964
3 *42:3 *44:3 0.157791
4 *86 *89 0.154113
5 *86 1.83929
6 *132:ZN 0.079244
7 *42:3 1.85106
8 *42:5 0.0

*RES
1 *86 *42:3 19.0559
2 *132:ZN *42:5 0.001
3 *132:ZN *42:3 5.04
4 *145:A1 *42:4 0.001
5 *145:A1 *42:3 5.61054
*END

*D_NET *43 2.07521

*CONN
*P *87 O *C 47.3200 4.0000
*I *133:ZN O *C 43.4000 8.6800 *D gf180mcu_fd_sc_mcu7t5v0__tiel
*I *146:A1 I *C 42.2800 14.2800

*CAP
1 *43:3 *7:2 0.231304
2 *43:3 *57 0.0941763
3 *43:3 *28:4 0.00198353
4 *43:3 *33:4 0.00826982
5 *43:3 *45:8 0.0342171
6 *87 0.921821
7 *146:A1 0.0467533
8 *43:3 0.73668
9 *43:5 0.0

*RES
1 *87 *43:3 11.8559
2 *133:ZN *43:3 4.5
3 *133:ZN *43:5 0.001
4 *146:A1 *43:3 6.68015
5 *146:A1 *43:4 0.001
*END

*D_NET *44 6.15793

*CONN
*P *88 O *C 4.0000 30.5200
*I *134:ZN O *C 15.4000 53.4800 *D gf180mcu_fd_sc_mcu7t5v0__tiel
*I *145:A2 I *C 12.6000 52.9200

*CAP
1 *44:3 *8:2 0.158641
2 *44:3 *69 0.00226634
3 *44:3 *85 1.72376
4 *44:3 *42:3 0.157791
5 *88 2.65281
6 *134:ZN 0.0382791
7 *145:A2 0.119357
8 *44:3 1.30502
9 *44:5 0.0

*RES
1 *88 *44:3 21.6064
2 *134:ZN *44:3 9.0
3 *134:ZN *44:5 0.001
4 *145:A2 *44:3 10.1716
5 *145:A2 *44:4 0.001
*END

*D_NET *45 11.7941

*CONN
*P *89 O *C 4.0000 64.1200
*I *102:I I *C 40.0400 10.3600
*I *135:ZN O *C 37.2400 9.2400 *D gf180mcu_fd_sc_mcu7t5v0__tiel
*I *146:A2 I *C 39.4800 13.7200

*CAP
1 *45:6 *3:2 0.645777
2 *45:6 *6:2 0.0182742
3 *45:6 *7:2 0.0518732
4 *45:8 *7:2 0.0109502
5 *45:8 *57 0.406999
6 *89 *23:5 0.822924
7 *89 *69 0.124558
8 *89 *73 0.107646
9 *45:6 *30:5 0.00262677
10 *45:8 *30:5 0.00223464
11 *45:6 *31:4 0.0406126
12 *89 *33:4 0.00265903
13 *45:6 *33:4 0.302703
14 *45:6 *34:5 0.026979
15 *45:6 *38:4 0.00375104
16 *45:8 *38:4 0.00122245
17 *89 *85 0.0855852
18 *89 *86 0.154113
19 *45:8 *43:3 0.0342171
20 *89 *46:4 0.0204836
21 *89 4.80074
22 *135:ZN 0.380702
23 *45:6 3.3757
24 *45:8 0.370734

*RES
1 *89 *45:6 41.2875
2 *102:I *45:8 4.5
3 *102:I *45:7 0.001
4 *135:ZN *45:4 0.001
5 *135:ZN *45:8 14.8516
6 *146:A2 *45:6 4.5
7 *146:A2 *45:5 0.001
8 *45:6 *45:8 1.08
*END

*D_NET *46 9.46728

*CONN
*P *90 O *C 71.0000 30.5200
*I *103:I I *C 21.5600 18.2000
*I *136:ZN O *C 17.0800 22.6800 *D gf180mcu_fd_sc_mcu7t5v0__tiel
*I *147:A1 I *C 14.2800 17.6400

*CAP
1 *46:4 *3:2 0.102848
2 *46:5 *3:2 0.371262
3 *90 *9:5 0.0949059
4 *46:4 *62 0.283625
5 *90 *28:5 0.0752135
6 *46:4 *29:6 0.0199584
7 *46:4 *34:5 0.337483