*SPEF "IEEE 1481-1999"
*DESIGN "spare_logic_block"
*DATE "Tue Oct 17 02:39:21 2023"
*VENDOR "Synopsys Inc."
*PROGRAM "StarRC"
*VERSION "U-2022.12-SP4"
*DESIGN_FLOW "PIN_CAP NONE" "NAME_SCOPE LOCAL"
*DIVIDER /
*DELIMITER :
*BUS_DELIMITER []
*T_UNIT 1.0 NS
*C_UNIT 1.0 FF
*R_UNIT 1.0 OHM
*L_UNIT 1.0 HENRY

// COMMENTS

// CORNER_NAME 
// OPERATING_TEMPERATURE -40
// GLOBAL_TEMPERATURE 25
// TCAD_GRD_FILE /home/passant/caravel-gf180mcu/scripts/gf180mcu-tech/gf180mcu_1p5m_1tm_11k_sp_smim_OPTB_bst.nxtgrd
//   TCAD_TIME_STAMP Tue Dec 26 18:39:34 2017
//   TCADGRD_VERSION 75
// galaxy_comments_begin
//   local_nodeid
// galaxy_comments_end

*NAME_MAP
*47 spare_xfq[0]
*48 spare_xfq[1]
*49 spare_xi[0]
*50 spare_xi[1]
*51 spare_xi[2]
*52 spare_xi[3]
*53 spare_xib
*54 spare_xmx[0]
*55 spare_xmx[1]
*56 spare_xna[0]
*57 spare_xna[1]
*58 spare_xno[0]
*59 spare_xno[1]
*60 spare_xz[0]
*61 spare_xz[10]
*62 spare_xz[11]
*63 spare_xz[12]
*64 spare_xz[13]
*65 spare_xz[14]
*66 spare_xz[15]
*67 spare_xz[16]
*68 spare_xz[17]
*69 spare_xz[18]
*70 spare_xz[19]
*71 spare_xz[1]
*72 spare_xz[20]
*73 spare_xz[21]
*74 spare_xz[22]
*75 spare_xz[23]
*76 spare_xz[24]
*77 spare_xz[25]
*78 spare_xz[26]
*79 spare_xz[27]
*80 spare_xz[28]
*81 spare_xz[29]
*82 spare_xz[2]
*83 spare_xz[30]
*84 spare_xz[3]
*85 spare_xz[4]
*86 spare_xz[5]
*87 spare_xz[6]
*88 spare_xz[7]
*89 spare_xz[8]
*90 spare_xz[9]
*91 ANTENNA_spare_logic_biginv_I
*92 ANTENNA_spare_logic_flop\[0\]_CLK
*93 ANTENNA_spare_logic_flop\[0\]_RN
*94 ANTENNA_spare_logic_flop\[0\]_SETN
*95 ANTENNA_spare_logic_flop\[1\]_CLK
*96 ANTENNA_spare_logic_flop\[1\]_D
*97 ANTENNA_spare_logic_flop\[1\]_RN
*98 ANTENNA_spare_logic_flop\[1\]_SETN
*99 ANTENNA_spare_logic_inv\[3\]_I
*100 ANTENNA_spare_logic_mux\[1\]_I1
*101 ANTENNA_spare_logic_mux\[1\]_S
*102 ANTENNA_spare_logic_nand\[1\]_A2
*103 ANTENNA_spare_logic_nor\[0\]_A1
*104 ANTENNA_spare_logic_nor\[1\]_A1
*105 spare_logic_biginv
*106 spare_logic_const_one[0]
*107 spare_logic_const_one[1]
*108 spare_logic_const_one[2]
*109 spare_logic_const_one[3]
*110 spare_logic_const_zero[0]
*111 spare_logic_const_zero[10]
*112 spare_logic_const_zero[11]
*113 spare_logic_const_zero[12]
*114 spare_logic_const_zero[13]
*115 spare_logic_const_zero[14]
*116 spare_logic_const_zero[15]
*117 spare_logic_const_zero[16]
*118 spare_logic_const_zero[17]
*119 spare_logic_const_zero[18]
*120 spare_logic_const_zero[19]
*121 spare_logic_const_zero[1]
*122 spare_logic_const_zero[20]
*123 spare_logic_const_zero[21]
*124 spare_logic_const_zero[22]
*125 spare_logic_const_zero[23]
*126 spare_logic_const_zero[24]
*127 spare_logic_const_zero[25]
*128 spare_logic_const_zero[26]
*129 spare_logic_const_zero[2]
*130 spare_logic_const_zero[3]
*131 spare_logic_const_zero[4]
*132 spare_logic_const_zero[5]
*133 spare_logic_const_zero[6]
*134 spare_logic_const_zero[7]
*135 spare_logic_const_zero[8]
*136 spare_logic_const_zero[9]
*137 spare_logic_flop[0]
*138 spare_logic_flop[1]
*139 spare_logic_inv[0]
*140 spare_logic_inv[1]
*141 spare_logic_inv[2]
*142 spare_logic_inv[3]
*143 spare_logic_mux[0]
*144 spare_logic_mux[1]
*145 spare_logic_nand[0]
*146 spare_logic_nand[1]
*147 spare_logic_nor[0]
*148 spare_logic_nor[1]
*3 spare_xfq[0]
*4 spare_xfq[1]
*5 spare_xi[0]
*6 spare_xi[1]
*7 spare_xi[2]
*8 spare_xi[3]
*9 spare_xib
*10 spare_xmx[0]
*11 spare_xmx[1]
*12 spare_xna[0]
*13 spare_xna[1]
*14 spare_xno[0]
*15 spare_xno[1]
*16 spare_xz[0]
*17 spare_xz[10]
*18 spare_xz[11]
*19 spare_xz[12]
*20 spare_xz[13]
*21 spare_xz[14]
*22 spare_xz[15]
*23 spare_xz[16]
*24 spare_xz[17]
*25 spare_xz[18]
*26 spare_xz[19]
*27 spare_xz[1]
*28 spare_xz[20]
*29 spare_xz[21]
*30 spare_xz[22]
*31 spare_xz[23]
*32 spare_xz[24]
*33 spare_xz[25]
*34 spare_xz[26]
*35 spare_xz[27]
*36 spare_xz[28]
*37 spare_xz[29]
*38 spare_xz[2]
*39 spare_xz[30]
*40 spare_xz[3]
*41 spare_xz[4]
*42 spare_xz[5]
*43 spare_xz[6]
*44 spare_xz[7]
*45 spare_xz[8]
*46 spare_xz[9]

*PORTS

*47 O
*48 O
*49 O
*50 O
*51 O
*52 O
*53 O
*54 O
*55 O
*56 O
*57 O
*58 O
*59 O
*60 O
*61 O
*62 O
*63 O
*64 O
*65 O
*66 O
*67 O
*68 O
*69 O
*70 O
*71 O
*72 O
*73 O
*74 O
*75 O
*76 O
*77 O
*78 O
*79 O
*80 O
*81 O
*82 O
*83 O
*84 O
*85 O
*86 O
*87 O
*88 O
*89 O
*90 O

*D_NET *3 4.81018

*CONN
*P *47 O *C 4.0000 23.8000
*I *137:Q O *C 29.4000 14.2800 *D gf180mcu_fd_sc_mcu7t5v0__dffrsnq_2

*CAP
1 *3:2 *62 0.0763352
2 *3:2 *67 0.0405115
3 *47 *29:5 0.14839
4 *47 *29:6 0.0812099
5 *3:2 *30:4 0.00733781
6 *3:2 *31:4 0.607422
7 *3:2 *33:4 0.00785277
8 *3:2 *45:6 0.557248
9 *3:2 *46:4 0.102281
10 *3:2 *46:5 0.322515
11 *47 1.3589
12 *137:Q 0.578932
13 *3:2 0.921244
14 *3:3 0.0

*RES
1 *47 *3:2 9.43928
2 *137:Q *3:2 15.3547
3 *137:Q *3:3 0.001
*END

*D_NET *4 3.24937

*CONN
*P *48 O *C 67.4800 4.0000
*I *138:Q O *C 60.2000 17.6400 *D gf180mcu_fd_sc_mcu7t5v0__dffrsnq_2

*CAP
1 *48 *9:2 0.119422
2 *4:2 *28:4 0.2645
3 *4:2 *75 0.0911098
4 *48 *32:6 0.00201927
5 *4:2 *32:6 0.0678199
6 *48 *77 0.548039
7 *4:2 *77 0.217651
8 *48 *34:6 0.00421274
9 *4:2 *34:6 0.00727422
10 *48 1.49692
11 *4:2 0.430402
12 *4:3 0.0

*RES
1 *48 *4:2 13.1758
2 *138:Q *4:2 4.23383
3 *138:Q *4:3 0.001
*END

*D_NET *5 3.06778

*CONN
*P *49 O *C 33.8800 66.0000
*I *139:ZN O *C 40.0400 52.3600 *D gf180mcu_fd_sc_mcu7t5v0__inv_2

*CAP
1 *5:2 *8:2 0.2182
2 *5:2 *11:2 0.448732
3 *5:2 *16:3 0.067437
4 *5:2 *71 0.16433
5 *5:2 *40:5 0.0174224
6 *5:2 *40:6 0.102918
7 *49 0.362424
8 *139:ZN 0.436515
9 *5:2 1.2498
10 *5:3 0.0

*RES
1 *49 *5:2 3.04956
2 *139:ZN *5:2 14.1114
3 *139:ZN *5:3 0.001
*END

*D_NET *6 5.23783

*CONN
*P *50 O *C 27.1600 4.0000
*I *140:ZN O *C 35.0000 28.8400 *D gf180mcu_fd_sc_mcu7t5v0__inv_2

*CAP
1 *6:2 *23:5 0.0329306
2 *50 *74 0.00513772
3 *140:ZN *30:4 0.00407495
4 *140:ZN *30:5 0.00549672
5 *6:2 *74 0.0702884
6 *6:2 *30:4 0.00107175
7 *6:2 *30:5 0.365067
8 *140:ZN *31:4 0.0211918
9 *6:2 *31:4 0.785815
10 *140:ZN *93:I 0.0226652
11 *6:2 *33:4 0.845569
12 *6:2 *34:5 0.100379
13 *140:ZN *38:4 0.0717434
14 *6:2 *45:6 0.0187642
15 *50 0.367512
16 *140:ZN 1.25923
17 *6:2 1.2609
18 *6:4 0.0

*RES
1 *50 *6:2 1.4121
2 *140:ZN *6:2 18.5264
3 *140:ZN *6:4 0.001
4 *140:ZN *6:3 0.001
*END

*D_NET *7 3.82682

*CONN
*P *51 O *C 71.0000 10.3600
*I *141:ZN O *C 36.1200 13.1600 *D gf180mcu_fd_sc_mcu7t5v0__inv_2

*CAP
1 *7:2 *57 0.0366075
2 *7:2 *59 0.0134615
3 *7:2 *75 0.00343977
4 *7:2 *93:I 0.0573863
5 *7:2 *33:4 0.0301412
6 *7:2 *38:4 0.00384621
7 *7:2 *43:3 0.211506
8 *7:2 *45:6 0.0515136
9 *7:2 *45:8 0.0108912
10 *51 0.417696
11 *141:ZN 0.365245
12 *7:2 2.62508
13 *7:4 0.0

*RES
1 *51 *7:2 2.02934
2 *141:ZN *7:4 0.001
3 *141:ZN *7:3 0.001
4 *141:ZN *7:2 14.8676
*END

*D_NET *8 3.5326

*CONN
*P *52 O *C 4.0000 50.6800
*I *142:ZN O *C 35.0000 52.3600 *D gf180mcu_fd_sc_mcu7t5v0__inv_2

*CAP
1 *8:2 *5:2 0.2182
2 *8:2 *144:Z 0.0481826
3 *8:2 *11:2 0.0431369
4 *8:2 *12:3 0.202762
5 *8:2 *69 0.0105832
6 *8:2 *73 0.0126982
7 *8:2 *40:6 0.0187938
8 *8:2 *42:3 0.317121
9 *8:2 *44:3 0.151261
10 *52 0.404127
11 *142:ZN 0.0515778
12 *8:2 2.05415
13 *8:4 0.0

*RES
1 *52 *8:2 4.95124
2 *142:ZN *8:2 10.8356
3 *142:ZN *8:4 0.001
4 *142:ZN *8:3 0.001
*END

*D_NET *9 6.55448

*CONN
*P *53 O *C 71.0000 3.6400
*I *105:ZN O *C 43.8825 33.8150 *D gf180mcu_fd_sc_mcu7t5v0__inv_12

*CAP
1 *9:2 *48 0.119422
2 *9:5 *17:4 0.116904
3 *9:5 *21:3 0.108423
4 *9:5 *28:5 0.00144924
5 *9:2 *75 0.0510078
6 *9:2 *32:6 0.360722
7 *9:2 *34:6 0.0174224
8 *9:2 *37:2 0.303598
9 *9:5 *90 0.0985344
10 *53 0.792967
11 *105:ZN 0.05479
12 *9:2 3.63495
13 *9:3 0.0683233
14 *9:5 0.825963
15 *9:7 0.0

*RES
1 *53 *9:2 10.2131
2 *105:ZN *9:5 0.001
3 *105:ZN *9:6 0.001
4 *9:2 *9:5 19.4822
5 *9:3 *9:6 0.001
6 *9:3 *9:7 0.313034
7 *9:4 *9:5 0.001
8 *9:5 *9:6 0.001
9 *9:6 *9:7 7.97822
*END

*D_NET *10 4.82804

*CONN
*P *54 O *C 74.2000 4.0000
*I *143:Z O *C 65.8000 51.8000 *D gf180mcu_fd_sc_mcu7t5v0__mux2_2

*CAP
1 *143:Z *11:2 0.11279
2 *10:2 *11:2 0.0875838
3 *143:Z *63 0.0425295
4 *54 1.11725
5 *143:Z 0.325847
6 *10:2 3.14203
7 *10:3 0.0

*RES
1 *54 *10:2 8.80121
2 *143:Z *10:2 16.5716
3 *143:Z *10:3 0.001
*END

*D_NET *11 6.74924

*CONN
*P *55 O *C 71.0000 50.6800
*I *144:Z O *C 35.0000 41.7200 *D gf180mcu_fd_sc_mcu7t5v0__mux2_2

*CAP
1 *11:2 *5:2 0.448732
2 *144:Z *8:2 0.0481826
3 *11:2 *8:2 0.0431369
4 *11:2 *143:Z 0.11279
5 *11:2 *10:2 0.0875838
6 *11:2 *16:3 1.5322
7 *11:2 *63 0.0752747
8 *11:2 *19:3 0.0150981
9 *11:2 *20:3 0.577968
10 *11:2 *22:3 0.00444121
11 *144:Z *23:7 0.0132116
12 *144:Z *25:6 0.00150266
13 *144:Z *71 0.0374721
14 *11:2 *32:4 0.00897531
15 *55 0.363634
16 *144:Z 0.955401
17 *11:2 2.42364
18 *11:3 0.0

*RES
1 *55 *11:2 3.14392
2 *144:Z *11:2 15.8035
3 *144:Z *11:3 0.001
*END

*D_NET *12 2.62567

*CONN
*P *56 O *C 0.2800 66.0000
*I *145:ZN O *C 9.8000 54.0400 *D gf180mcu_fd_sc_mcu7t5v0__nand2_2

*CAP
1 *12:3 *8:2 0.202762
2 *12:3 *69 0.144528
3 *56 *73 0.0276149
4 *12:3 *73 0.494401
5 *12:3 *80 0.144287
6 *56 0.362423
7 *145:ZN 0.321315
8 *12:3 0.928343
9 *12:4 0.0

*RES
1 *56 *12:3 2.67655
2 *145:ZN *12:3 14.8574
3 *145:ZN *12:4 0.001
4 *145:ZN *12:2 0.001
*END

*D_NET *13 1.48875

*CONN
*P *57 O *C 40.6000 4.0000
*I *146:ZN O *C 40.6000 13.1600 *D gf180mcu_fd_sc_mcu7t5v0__nand2_2

*CAP
1 *57 *7:2 0.0366075
2 *57 *43:3 0.0924596
3 *57 *45:8 0.354226
4 *57 1.00545
5 *13:3 0.0

*RES
1 *57 *13:3 2.05487
2 *146:ZN *13:3 4.23383
3 *146:ZN *13:2 0.001
*END

*D_NET *14 1.09069

*CONN
*P *58 O *C 4.0000 17.0800
*I *147:ZN O *C 11.4800 17.0800 *D gf180mcu_fd_sc_mcu7t5v0__nor2_2

*CAP
1 *58 *62 0.0126891
2 *58 *137:CLK 0.0145709
3 *58 *29:5 0.114553
4 *58 *34:5 0.147557
5 *58 0.716792
6 *14:2 0.084525
7 *14:3 0.0

*RES
1 *58 *14:2 5.91569
2 *147:ZN *14:2 4.23383
3 *147:ZN *14:3 0.001
*END

*D_NET *15 5.39016

*CONN
*P *59 O *C 54.0400 4.0000
*I *148:ZN O *C 55.1600 36.1150 *D gf180mcu_fd_sc_mcu7t5v0__nor2_2

*CAP
1 *59 *7:2 0.0134615
2 *15:2 *19:3 0.0358581
3 *15:2 *32:4 1.27876
4 *15:2 *32:6 0.47651
5 *15:2 *34:6 0.384271
6 *59 0.903309
7 *15:2 2.29799
8 *15:9 0.0

*RES
1 *59 *15:2 6.19459
2 *148:ZN *15:3 0.001
3 *148:ZN *15:7 0.001
4 *148:ZN *15:6 0.001
5 *148:ZN *15:8 0.001
6 *148:ZN *15:5 0.001
7 *148:ZN *15:9 0.001
8 *15:2 *15:5 5.44055
9 *15:4 *15:5 0.001
*END

*D_NET *16 6.05716

*CONN
*P *60 O *C 71.0000 57.4000
*I *110:ZN O *C 40.0400 48.4400 *D gf180mcu_fd_sc_mcu7t5v0__tiel
*I *139:I I *C 41.1600 52.9200

*CAP
1 *16:3 *5:2 0.067437
2 *16:3 *11:2 1.5322
3 *60 *63 0.00538957
4 *60 *19:3 0.0139918
5 *60 *20:3 0.00277508
6 *16:3 *20:3 0.0187586
7 *60 *22:3 0.215319
8 *60 *24:4 0.00187428
9 *16:3 *71 0.143755
10 *60 *32:4 0.568819
11 *60 *40:6 0.629582
12 *16:3 *40:6 0.128806
13 *60 1.34666
14 *110:ZN 0.0870291
15 *16:3 1.29477
16 *16:5 0.0

*RES
1 *60 *16:3 20.5513
2 *110:ZN *16:3 5.32177
3 *110:ZN *16:4 0.001
4 *139:I *16:5 0.001
5 *139:I *16:3 4.37925
*END

*D_NET *17 7.36598

*CONN
*P *61 O *C 4.0000 37.2400
*I *104:I I *C 50.6800 33.8800
*I *111:ZN O *C 48.4400 37.8000 *D gf180mcu_fd_sc_mcu7t5v0__tiel
*I *148:A1 I *C 52.9200 37.2400

*CAP
1 *17:4 *9:5 0.116904
2 *104:I *19:3 0.00352888
3 *104:I *21:3 0.00414866
4 *17:4 *21:3 0.568005
5 *17:4 *23:5 0.828502
6 *17:4 *23:7 0.00732762
7 *61 *25:5 0.400742
8 *17:4 *25:5 0.371353
9 *17:4 *25:6 0.0323147
10 *104:I *28:5 0.0310153
11 *17:4 *28:5 0.0730621
12 *61 *41:5 0.614303
13 *17:4 *41:5 0.598347
14 *61 0.975248
15 *104:I 0.166552
16 *111:ZN 0.0744348
17 *148:A1 0.0843996
18 *17:4 2.10694
19 *17:5 0.308852
20 *17:8 0.0

*RES
1 *61 *17:4 9.8514
2 *104:I *17:5 9.13152
3 *104:I *17:7 0.001
4 *111:ZN *17:4 8.63417
5 *111:ZN *17:6 0.001
6 *148:A1 *17:5 9.15261
7 *148:A1 *17:8 0.001
8 *17:4 *17:5 0.62168
*END

*D_NET *18 2.37757

*CONN
*P *62 O *C 13.7200 4.0000
*I *112:ZN O *C 18.2000 16.5200 *D gf180mcu_fd_sc_mcu7t5v0__tiel
*I *147:A2 I *C 13.7200 18.2000

*CAP
1 *62 *3:2 0.0763352
2 *62 *58 0.0126891
3 *62 *26:3 0.0460101
4 *62 *34:5 0.0347234
5 *62 *46:4 0.259736
6 *62 1.68486
7 *112:ZN 0.100567
8 *18:3 0.162649
9 *18:5 0.0

*RES
1 *62 *18:3 2.7798
2 *112:ZN *18:5 0.001
3 *112:ZN *18:3 13.7384
4 *147:A2 *18:4 0.001
5 *147:A2 *18:3 4.62793
*END

*D_NET *19 5.46459

*CONN
*P *63 O *C 67.4800 66.0000
*I *113:ZN O *C 56.8400 40.0400 *D gf180mcu_fd_sc_mcu7t5v0__tiel
*I *148:A2 I *C 55.1600 37.2400

*CAP
1 *63 *143:Z 0.0425295
2 *63 *11:2 0.0752747
3 *19:3 *11:2 0.0150981
4 *19:3 *15:2 0.0358581
5 *63 *60 0.00538957
6 *19:3 *60 0.0139918
7 *19:3 *104:I 0.00352888
8 *63 *20:3 0.00190392
9 *19:3 *20:3 0.540399
10 *19:3 *21:3 0.0823269
11 *63 *66 0.0109741
12 *63 *22:3 0.067755
13 *19:3 *22:3 0.00371543
14 *19:3 *24:4 0.00259975
15 *19:3 *72 0.0556728
16 *19:3 *32:4 0.395904
17 *63 *84 0.108597
18 *63 *40:6 0.0720761
19 *63 1.86
20 *113:ZN 0.0350375
21 *148:A2 0.203915
22 *19:3 1.83205
23 *19:5 0.0

*RES
1 *63 *19:3 20.9543
2 *113:ZN *19:3 8.46765
3 *113:ZN *19:5 0.001
4 *148:A2 *19:3 9.52562
5 *148:A2 *19:4 0.001
*END

*D_NET *20 4.63574

*CONN
*P *64 O *C 47.3200 66.0000
*I *114:ZN O *C 60.7600 48.4400 *D gf180mcu_fd_sc_mcu7t5v0__tiel
*I *143:I0 I *C 60.2000 53.4800

*CAP
1 *20:3 *11:2 0.577968
2 *20:3 *60 0.00277508
3 *20:3 *16:3 0.0187586
4 *20:3 *63 0.00190392
5 *20:3 *19:3 0.540399
6 *20:3 *24:4 0.00844229
7 *64 2.40758
8 *114:ZN 0.0763736
9 *20:3 1.00154
10 *20:5 0.0

*RES
1 *64 *20:3 14.9165
2 *114:ZN *20:3 4.60683
3 *114:ZN *20:5 0.001
4 *143:I0 *20:4 0.001
5 *143:I0 *20:3 5.00093
*END

*D_NET *21 3.9602

*CONN
*P *65 O *C 71.0000 37.2400
*I *115:ZN O *C 42.8400 38.3600 *D gf180mcu_fd_sc_mcu7t5v0__tiel
*I *144:I0 I *C 40.6000 40.6000

*CAP
1 *21:3 *9:5 0.108423
2 *21:3 *104:I 0.00414866
3 *21:3 *17:4 0.568005
4 *21:3 *19:3 0.0823269
5 *21:3 *25:5 0.00272762
6 *21:3 *25:6 0.0824199
7 *21:3 *71 0.0938492
8 *65 1.47052
9 *115:ZN 0.0449494
10 *144:I0 0.124089
11 *21:3 1.37874
12 *21:5 0.0

*RES
1 *65 *21:3 6.50099
2 *115:ZN *21:3 8.46765
3 *115:ZN *21:5 0.001
4 *144:I0 *21:3 9.52562
5 *144:I0 *21:4 0.001
*END

*D_NET *22 3.41668

*CONN
*P *66 O *C 60.7600 66.0000
*I *116:ZN O *C 56.8400 54.0400 *D gf180mcu_fd_sc_mcu7t5v0__tiel
*I *143:I1 I *C 64.1200 52.9200

*CAP
1 *22:3 *11:2 0.00444121
2 *22:3 *60 0.215319
3 *66 *63 0.0109741
4 *22:3 *63 0.067755
5 *22:3 *19:3 0.00371543
6 *66 *24:4 0.304845
7 *22:3 *24:4 0.00251943
8 *22:3 *32:4 0.0187834
9 *22:3 *40:6 0.689369
10 *66 0.769975
11 *116:ZN 0.25416
12 *143:I1 0.161646
13 *22:3 0.913178
14 *22:5 0.0

*RES
1 *66 *22:3 6.53737
2 *116:ZN *22:3 9.77429
3 *116:ZN *22:4 0.001
4 *143:I1 *22:3 9.89863
5 *143:I1 *22:5 0.001
*END

*D_NET *23 8.4066

*CONN
*P *67 O *C 4.0000 10.3600
*I *100:I I *C 31.6400 40.0400
*I *117:ZN O *C 32.7600 37.8000 *D gf180mcu_fd_sc_mcu7t5v0__tiel
*I *144:I1 I *C 36.6800 41.1600

*CAP
1 *67 *3:2 0.0405115
2 *23:5 *6:2 0.0329306
3 *23:7 *144:Z 0.0132116
4 *23:5 *17:4 0.828502
5 *23:7 *17:4 0.00732762
6 *23:5 *25:5 0.0180904
7 *23:7 *25:5 0.0783517
8 *23:7 *25:6 0.0552243
9 *67 *70 0.347538
10 *23:7 *71 0.0021969
11 *23:5 *29:6 0.0262559
12 *67 *74 0.0352199
13 *67 *31:4 0.0200626
14 *23:5 *31:4 0.00991779
15 *23:5 *33:4 0.341026
16 *23:5 *41:5 0.0764941
17 *23:7 *41:5 0.0155979
18 *23:5 *89 0.777638
19 *67 2.69938
20 *117:ZN 0.102765
21 *144:I1 0.254014
22 *23:4 0.0700783
23 *23:5 1.82545
24 *23:7 0.728819
25 *23:9 0.0

*RES
1 *67 *23:5 20.5327
2 *100:I *23:7 4.23383
3 *100:I *23:6 0.001
4 *100:I *23:4 0.001
5 *117:ZN *23:5 9.02827
6 *117:ZN *23:8 0.001
7 *144:I1 *23:7 14.1325
8 *144:I1 *23:9 0.001
9 *23:5 *23:7 5.00093
*END

*D_NET *24 2.30792

*CONN
*P *68 O *C 71.0000 64.1200
*I *118:ZN O *C 62.4400 56.2800 *D gf180mcu_fd_sc_mcu7t5v0__tiel
*I *143:S I *C 63.0000 53.4800

*CAP
1 *24:4 *60 0.00187428
2 *24:4 *19:3 0.00259975
3 *24:4 *20:3 0.00844229
4 *24:4 *66 0.304845
5 *24:4 *22:3 0.00251943
6 *68 *84 0.0823645
7 *24:4 *40:6 0.00997072
8 *68 0.716406
9 *143:S 0.0556995
10 *24:4 1.1232
11 *24:5 0.0

*RES
1 *68 *24:4 7.91728
2 *118:ZN *24:4 4.23383
3 *118:ZN *24:3 0.001
4 *143:S *24:4 4.8766
5 *143:S *24:5 0.001
*END

*D_NET *25 8.41683

*CONN
*P *69 O *C 13.7200 66.0000
*I *101:I I *C 43.4000 40.0400
*I *119:ZN O *C 35.5600 38.3600 *D gf180mcu_fd_sc_mcu7t5v0__tiel
*I *144:S I *C 37.8000 40.6000

*CAP
1 *69 *8:2 0.0105832
2 *25:6 *144:Z 0.00150266
3 *69 *12:3 0.144528
4 *25:5 *61 0.400742
5 *25:5 *17:4 0.371353
6 *25:6 *17:4 0.0323147
7 *25:5 *21:3 0.00272762
8 *25:6 *21:3 0.0824199
9 *25:5 *23:5 0.0180904
10 *25:5 *23:7 0.0783517
11 *25:6 *23:7 0.0552243
12 *25:6 *71 0.0503227
13 *69 *73 0.058619
14 *69 *80 0.0366118
15 *69 *83 0.0355302
16 *69 *85 0.0285533
17 *25:5 *85 1.20548
18 *69 *42:3 0.0588317
19 *69 *44:3 0.00232486
20 *69 *89 0.114488
21 *69 2.9399
22 *101:I 0.2849
23 *119:ZN 0.0284119
24 *25:4 0.0708323
25 *25:5 1.7438
26 *25:6 0.560384
27 *25:9 0.0

*RES
1 *69 *25:5 17.6854
2 *101:I *25:6 13.987
3 *101:I *25:9 0.001
4 *101:I *25:4 0.001
5 *119:ZN *25:5 8.46765
6 *119:ZN *25:7 0.001
7 *144:S *25:8 0.001
8 *144:S *25:6 4.37925
9 *25:5 *25:6 5.14636
*END

*D_NET *26 2.3412

*CONN
*P *70 O *C 0.2800 4.0000
*I *120:ZN O *C 10.9200 8.6800 *D gf180mcu_fd_sc_mcu7t5v0__tiel
*I *137:D I *C 10.9200 13.7200

*CAP
1 *26:3 *62 0.0460101
2 *70 *67 0.347538
3 *26:3 *137:CLK 0.0177619
4 *26:3 *78 0.0189795
5 *70 0.990641
6 *26:3 0.920266
7 *26:5 0.0

*RES
1 *70 *26:3 11.9324
2 *120:ZN *26:3 4.23383
3 *120:ZN *26:4 0.001
4 *137:D *26:5 0.001
5 *137:D *26:3 5.37394
*END

*D_NET *27 4.70451

*CONN
*P *71 O *C 40.6000 66.0000
*I *121:ZN O *C 39.4800 37.8000 *D gf180mcu_fd_sc_mcu7t5v0__tiel
*I *140:I I *C 36.6800 29.4000

*CAP
1 *71 *5:2 0.16433
2 *71 *144:Z 0.0374721
3 *71 *16:3 0.143755
4 *71 *21:3 0.0938492
5 *71 *23:7 0.0021969
6 *71 *25:6 0.0503227
7 *71 *40:6 0.0357649
8 *71 1.57928
9 *140:I 0.0831112
10 *27:3 2.51443
11 *27:5 0.0

*RES
1 *71 *27:3 6.52542
2 *121:ZN *27:5 0.001
3 *121:ZN *27:3 4.23383
4 *140:I *27:3 6.67392
5 *140:I *27:4 0.001
*END

*D_NET *28 9.77574

*CONN
*P *72 O *C 71.0000 43.9600
*I *96:I I *C 63.0000 18.2000
*I *122:ZN O *C 47.8800 14.8400 *D gf180mcu_fd_sc_mcu7t5v0__tiel
*I *138:D I *C 42.2800 17.6400

*CAP
1 *28:4 *4:2 0.2645
2 *28:5 *9:5 0.00144924
3 *28:5 *104:I 0.0310153
4 *28:5 *17:4 0.0730621
5 *72 *19:3 0.0556728
6 *28:4 *30:5 0.0142946
7 *28:4 *75 0.000824608
8 *28:4 *31:5 0.0740764
9 *28:4 *32:6 1.03417
10 *28:4 *77 0.868618
11 *28:4 *33:4 0.0265535
12 *28:4 *34:5 1.11568
13 *28:4 *34:6 0.00687202
14 *28:5 *34:6 0.0130663
15 *28:4 *43:3 0.00223408
16 *28:5 *90 0.0750439
17 *72 3.03842
18 *96:I 0.0589212
19 *138:D 0.0634655
20 *28:4 0.621311
21 *28:5 2.33648
22 *28:8 0.0

*RES
1 *72 *28:5 15.1898
2 *96:I *28:4 11.9702
3 *96:I *28:8 0.001
4 *122:ZN *28:5 4.8766
5 *122:ZN *28:7 0.001
6 *138:D *28:4 9.71656
7 *138:D *28:6 0.001
8 *28:4 *28:5 4.23383
*END

*D_NET *29 8.96184

*CONN
*P *73 O *C 7.0000 66.0000
*I *92:I I *C 27.1600 18.2000
*I *123:ZN O *C 11.4800 22.1200 *D gf180mcu_fd_sc_mcu7t5v0__tiel
*I *137:CLK I *C 9.2400 13.7200

*CAP
1 *29:5 *47 0.14839
2 *29:6 *47 0.0812099
3 *73 *8:2 0.0126982
4 *73 *56 0.0276149
5 *73 *12:3 0.494401
6 *137:CLK *58 0.0145709
7 *29:5 *58 0.114553
8 *29:6 *23:5 0.0262559
9 *73 *69 0.058619
10 *137:CLK *26:3 0.0177619
11 *29:6 *31:4 0.102781
12 *29:6 *31:5 0.0437265
13 *29:6 *33:4 0.00481763
14 *137:CLK *78 0.0635424
15 *29:5 *34:5 0.106052
16 *29:6 *34:5 0.411784
17 *73 *83 0.0101351
18 *73 *89 0.100578
19 *29:6 *46:4 0.0205803
20 *73 3.1418
21 *92:I 0.213828
22 *123:ZN 0.132104
23 *137:CLK 0.411313
24 *29:5 1.76308
25 *29:6 1.43964
26 *29:9 0.0

*RES
1 *73 *29:5 18.3704
2 *92:I *29:9 0.001
3 *92:I *29:6 12.4941
4 *123:ZN *29:8 0.001
5 *123:ZN *29:6 8.88285
6 *137:CLK *29:7 0.001
7 *137:CLK *29:4 0.001
8 *137:CLK *29:5 10.0019
9 *29:5 *29:6 0.512886
*END

*D_NET *30 5.83765

*CONN
*P *74 O *C 4.0000 3.6400
*I *95:I I *C 38.3600 21.0000
*I *124:ZN O *C 31.6400 8.6800 *D gf180mcu_fd_sc_mcu7t5v0__tiel
*I *138:CLK I *C 39.4800 17.6400

*CAP
1 *30:4 *3:2 0.00733781
2 *74 *50 0.00513772
3 *30:4 *140:ZN 0.00407495
4 *30:5 *140:ZN 0.00549672
5 *74 *6:2 0.0702884
6 *30:4 *6:2 0.00107175
7 *30:5 *6:2 0.365067
8 *74 *67 0.0352199
9 *30:5 *28:4 0.0142946
10 *74 *31:4 0.0338634
11 *30:4 *31:4 0.0225915
12 *30:5 *31:5 0.0533219
13 *30:4 *93:I 0.0058511
14 *30:4 *33:4 0.0148568
15 *30:5 *33:4 0.201059
16 *30:5 *34:5 0.367611
17 *74 *79 0.0631443
18 *30:4 *38:4 0.108403
19 *30:5 *45:6 0.00269795
20 *30:5 *45:8 0.00260992
21 *74 2.12294
22 *95:I 0.024806
23 *30:4 2.12454
24 *30:5 0.181354
25 *30:8 0.0

*RES
1 *74 *30:4 20.0628
2 *95:I *30:7 0.001
3 *95:I *30:5 5.24961
4 *124:ZN *30:4 4.23383
5 *124:ZN *30:6 0.001
6 *138:CLK *30:5 4.23383
7 *138:CLK *30:8 0.001
8 *30:4 *30:5 12.261
*END

*D_NET *31 8.5098

*CONN
*P *75 O *C 60.7600 4.0000
*I *94:I I *C 32.7600 21.0000
*I *125:ZN O *C 28.2800 9.2400 *D gf180mcu_fd_sc_mcu7t5v0__tiel
*I *137:SETN I *C 23.2400 13.7200

*CAP
1 *31:4 *3:2 0.607422
2 *75 *4:2 0.0911098
3 *31:4 *140:ZN 0.0211918
4 *31:4 *6:2 0.785815
5 *75 *7:2 0.00343977
6 *75 *9:2 0.0510078
7 *31:4 *67 0.0200626
8 *31:4 *23:5 0.00991779
9 *75 *28:4 0.000824608
10 *31:5 *28:4 0.0740764
11 *31:4 *29:6 0.102781
12 *31:5 *29:6 0.0437265
13 *31:4 *74 0.0338634
14 *31:4 *30:4 0.0225915
15 *31:5 *30:5 0.0533219
16 *75 *32:6 0.00377044
17 *31:5 *32:6 0.121306
18 *31:4 *33:4 0.00591545
19 *75 *34:6 0.0104025
20 *31:5 *34:5 0.555269
21 *75 *37:2 0.00107077
22 *31:4 *45:6 0.042761
23 *75 2.87959
24 *94:I 0.0454808
25 *125:ZN 0.358843
26 *137:SETN 0.432807
27 *31:4 0.517562
28 *31:5 1.61386
29 *31:8 0.0

*RES
1 *75 *31:5 14.1274
2 *94:I *31:5 8.63417
3 *94:I *31:8 0.001
4 *125:ZN *31:4 5.24961
5 *125:ZN *31:7 0.001
6 *137:SETN *31:4 13.8627
7 *137:SETN *31:6 0.001
8 *31:4 *31:5 6.77827
*END

*D_NET *32 10.4302

*CONN
*P *76 O *C 54.0400 66.0000
*I *98:I I *C 63.0000 14.8400
*I *126:ZN O *C 54.6000 22.6800 *D gf180mcu_fd_sc_mcu7t5v0__tiel
*I *138:SETN I *C 54.0400 17.6400

*CAP
1 *32:6 *48 0.00201927
2 *32:6 *4:2 0.0678199
3 *32:6 *9:2 0.360722
4 *32:4 *11:2 0.00897531
5 *32:4 *15:2 1.27876
6 *32:6 *15:2 0.47651
7 *32:4 *60 0.568819
8 *32:4 *19:3 0.395904
9 *32:4 *22:3 0.0187834
10 *32:6 *28:4 1.03417
11 *32:6 *75 0.00377044
12 *32:6 *31:5 0.121306
13 *32:6 *77 0.0289479
14 *32:6 *34:5 0.0205084
15 *32:6 *34:6 0.0578241
16 *32:6 *37:2 0.011254
17 *76 *40:6 0.00573294
18 *76 3.31747
19 *98:I 0.173813
20 *126:ZN 0.107997
21 *138:SETN 0.267819
22 *32:4 1.38153
23 *32:5 0.0963482
24 *32:6 0.623355
25 *32:9 0.0

*RES
1 *76 *32:4 10.0068
2 *98:I *32:6 11.1209
3 *98:I *32:9 0.001
4 *98:I *32:5 0.001
5 *126:ZN *32:4 12.9923
6 *126:ZN *32:8 0.001
7 *138:SETN *32:6 9.15261
8 *138:SETN *32:7 0.001
9 *32:4 *32:6 5.10973
*END

*D_NET *33 8.31814

*CONN
*P *77 O *C 71.0000 17.0800
*I *93:I I *C 34.4400 10.3600
*I *127:ZN O *C 30.5200 16.5200 *D gf180mcu_fd_sc_mcu7t5v0__tiel
*I *137:RN I *C 25.4800 13.7200

*CAP
1 *33:4 *3:2 0.00785277
2 *77 *48 0.548039
3 *77 *4:2 0.217651
4 *93:I *140:ZN 0.0226652
5 *33:4 *6:2 0.845569
6 *93:I *7:2 0.0573863
7 *33:4 *7:2 0.0301412
8 *33:4 *23:5 0.341026
9 *77 *28:4 0.868618
10 *33:4 *28:4 0.0265535
11 *33:4 *29:6 0.00481763
12 *93:I *30:4 0.0058511
13 *33:4 *30:4 0.0148568
14 *33:4 *30:5 0.201059
15 *33:4 *31:4 0.00591545
16 *77 *32:6 0.0289479
17 *77 *34:5 0.490473
18 *77 *34:6 0.141087
19 *33:4 *34:5 0.0842626
20 *93:I *38:4 0.414334
21 *33:4 *38:4 0.0104046
22 *33:4 *43:3 0.00801479
23 *33:4 *89 0.00275645
24 *33:4 *45:6 0.289844
25 *77 1.56054
26 *93:I 0.0227305
27 *127:ZN 0.0554376
28 *137:RN 0.133729
29 *33:4 1.72836
30 *33:5 0.149211
31 *33:8 0.0

*RES
1 *77 *33:4 8.11736
2 *93:I *33:4 9.73211
3 *93:I *33:8 0.001
4 *127:ZN *33:5 8.46765
5 *127:ZN *33:7 0.001
6 *137:RN *33:5 10.2716
7 *137:RN *33:6 0.001
8 *33:4 *33:5 0.994688
*END

*D_NET *34 10.3576

*CONN
*P *78 O *C 7.0000 4.0000
*I *97:I I *C 65.2400 14.8400
*I *128:ZN O *C 51.8000 14.8400 *D gf180mcu_fd_sc_mcu7t5v0__tiel
*I *138:RN I *C 55.7200 17.6400

*CAP
1 *34:6 *48 0.00421274
2 *34:6 *4:2 0.00727422
3 *34:5 *6:2 0.100379
4 *34:6 *9:2 0.0174224
5 *34:5 *58 0.147557
6 *34:6 *15:2 0.384271
7 *34:5 *62 0.0347234
8 *78 *26:3 0.0189795
9 *34:5 *28:4 1.11568
10 *34:6 *28:4 0.00687202
11 *34:6 *28:5 0.0130663
12 *78 *137:CLK 0.0635424
13 *34:5 *29:5 0.106052
14 *34:5 *29:6 0.411784
15 *34:5 *30:5 0.367611
16 *34:6 *75 0.0104025
17 *34:5 *31:5 0.555269
18 *34:5 *32:6 0.0205084
19 *34:6 *32:6 0.0578241
20 *34:5 *77 0.490473
21 *34:6 *77 0.141087
22 *34:5 *33:4 0.0842626
23 *34:5 *45:6 0.0267297
24 *34:5 *46:4 0.309177
25 *78 3.82026
26 *97:I 0.505811
27 *128:ZN 0.080311
28 *34:4 0.0756843
29 *34:5 0.733465
30 *34:6 0.646901
31 *34:9 0.0

*RES
1 *78 *34:5 21.9614
2 *97:I *34:6 15.5212
3 *97:I *34:9 0.001
4 *97:I *34:4 0.001
5 *128:ZN *34:5 4.8766
6 *128:ZN *34:7 0.001
7 *138:RN *34:6 4.23383
8 *138:RN *34:8 0.001
9 *34:5 *34:6 9.38019
*END

*D_NET *35 1.01392

*CONN
*P *79 O *C 20.4400 4.0000
*I *106:Z O *C 20.4400 10.3600 *D gf180mcu_fd_sc_mcu7t5v0__tieh

*CAP
1 *79 *74 0.0631443
2 *79 0.950776
3 *35:3 0.0

*RES
1 *79 *35:3 1.43319
2 *106:Z *35:3 4.23383
3 *106:Z *35:2 0.001
*END

*D_NET *36 1.15262

*CONN
*P *80 O *C 4.0000 57.4000
*I *107:Z O *C 10.9200 57.4000 *D gf180mcu_fd_sc_mcu7t5v0__tieh

*CAP
1 *80 *12:3 0.144287
2 *80 *69 0.0366118
3 *80 0.911475
4 *36:2 0.0602506
5 *36:3 0.0

*RES
1 *80 *36:2 5.79136
2 *107:Z *36:2 4.23383
3 *107:Z *36:3 0.001
*END

*D_NET *37 1.67745

*CONN
*P *81 O *C 71.0000 23.8000
*I *108:Z O *C 63.5600 21.0000 *D gf180mcu_fd_sc_mcu7t5v0__tieh

*CAP
1 *37:2 *9:2 0.303598
2 *37:2 *75 0.00107077
3 *37:2 *32:6 0.011254
4 *81 0.401866
5 *108:Z 0.164561
6 *37:2 0.795105
7 *37:3 0.0

*RES
1 *81 *37:2 1.67298
2 *108:Z *37:3 0.001
3 *108:Z *37:2 9.13152
*END

*D_NET *38 1.84074

*CONN
*P *82 O *C 33.8800 4.0000
*I *129:ZN O *C 34.4400 16.5200 *D gf180mcu_fd_sc_mcu7t5v0__tiel
*I *141:I I *C 34.4400 13.7200

*CAP
1 *38:4 *140:ZN 0.0717434
2 *38:4 *7:2 0.00384621
3 *38:4 *30:4 0.108403
4 *38:4 *93:I 0.414334
5 *38:4 *33:4 0.0104046
6 *38:4 *45:6 0.00341357
7 *38:4 *45:8 0.0013661
8 *82 0.362424
9 *38:4 0.864804
10 *38:5 0.0

*RES
1 *82 *38:4 2.15812
2 *129:ZN *38:5 0.001
3 *129:ZN *38:4 4.8766
4 *141:I *38:4 4.23383
5 *141:I *38:3 0.001
*END

*D_NET *39 1.09918

*CONN
*P *83 O *C 4.0000 43.9600
*I *109:Z O *C 10.9200 42.2800 *D gf180mcu_fd_sc_mcu7t5v0__tieh

*CAP
1 *83 *69 0.0355302
2 *83 *73 0.0101351
3 *83 0.865297
4 *39:3 0.188217

*RES
1 *83 *39:3 6.20655
2 *109:Z *39:3 4.23383
3 *109:Z *39:2 0.001
*END

*D_NET *40 6.2647

*CONN
*P *84 O *C 74.2000 66.0000
*I *99:I I *C 32.7600 54.0400
*I *130:ZN O *C 38.9200 56.2800 *D gf180mcu_fd_sc_mcu7t5v0__tiel
*I *142:I I *C 36.6800 52.9200

*CAP
1 *40:5 *5:2 0.0174224
2 *40:6 *5:2 0.102918
3 *40:6 *8:2 0.0187938
4 *40:6 *60 0.629582
5 *40:6 *16:3 0.128806
6 *84 *63 0.108597
7 *40:6 *63 0.0720761
8 *40:6 *22:3 0.689369
9 *84 *68 0.0823645
10 *40:6 *24:4 0.00997072
11 *40:6 *71 0.0357649
12 *40:6 *76 0.00573294
13 *84 2.30003
14 *99:I 0.204797
15 *130:ZN 0.0305211
16 *142:I 0.0177967
17 *40:4 0.0759254
18 *40:5 0.591471
19 *40:6 1.14277
20 *40:9 0.0

*RES
1 *84 *40:6 14.7491
2 *99:I *40:7 0.001
3 *99:I *40:4 0.001
4 *99:I *40:5 13.614
5 *130:ZN *40:9 0.001
6 *130:ZN *40:6 8.46765
7 *142:I *40:8 0.001
8 *142:I *40:5 4.50359
9 *40:5 *40:6 5.28624
*END

*D_NET *41 8.09165

*CONN
*P *85 O *C 20.4400 66.0000
*I *91:I I *C 29.4000 33.3200
*I *105:I I *C 32.2000 33.3200
*I *131:ZN O *C 29.4000 37.8000 *D gf180mcu_fd_sc_mcu7t5v0__tiel

*CAP
1 *41:5 *61 0.614303
2 *41:5 *17:4 0.598347
3 *41:5 *23:5 0.0764941
4 *41:5 *23:7 0.0155979
5 *85 *69 0.0285533
6 *85 *25:5 1.20548
7 *85 *44:3 1.50794
8 *85 *89 0.0786681
9 *85 2.09418
10 *105:I 0.171621
11 *41:4 0.720789
12 *41:5 0.979669
13 *41:8 0.0

*RES
1 *85 *41:5 18.7709
2 *91:I *41:4 4.23383
3 *91:I *41:6 0.001
4 *105:I *41:4 13.3653
5 *105:I *41:8 0.001
6 *131:ZN *41:5 4.23383
7 *131:ZN *41:7 0.001
8 *41:4 *41:5 1.01578
*END

*D_NET *42 4.13113

*CONN
*P *86 O *C 27.1600 66.0000
*I *132:ZN O *C 12.6000 48.4400 *D gf180mcu_fd_sc_mcu7t5v0__tiel
*I *145:A1 I *C 12.0400 53.4800

*CAP
1 *42:3 *8:2 0.317121
2 *42:3 *69 0.0588317
3 *42:3 *44:3 0.139978
4 *86 *89 0.150477
5 *86 1.81906
6 *132:ZN 0.0542356
7 *42:3 1.59142
8 *42:5 0.0

*RES
1 *86 *42:3 15.4138
2 *132:ZN *42:3 4.60683
3 *132:ZN *42:5 0.001
4 *145:A1 *42:4 0.001
5 *145:A1 *42:3 5.00093
*END

*D_NET *43 1.92498

*CONN
*P *87 O *C 47.3200 4.0000
*I *133:ZN O *C 43.4000 8.6800 *D gf180mcu_fd_sc_mcu7t5v0__tiel
*I *146:A1 I *C 42.2800 14.2800

*CAP
1 *43:3 *7:2 0.211506
2 *43:3 *57 0.0924596
3 *43:3 *28:4 0.00223408
4 *43:3 *33:4 0.00801479
5 *43:3 *45:8 0.0341452
6 *87 0.872297
7 *146:A1 0.0345161
8 *43:3 0.669806
9 *43:5 0.0

*RES
1 *87 *43:3 10.4404
2 *133:ZN *43:3 4.23383
3 *133:ZN *43:5 0.001
4 *146:A1 *43:3 5.73978
5 *146:A1 *43:4 0.001
*END

*D_NET *44 5.60878

*CONN
*P *88 O *C 4.0000 30.5200
*I *134:ZN O *C 15.4000 53.4800 *D gf180mcu_fd_sc_mcu7t5v0__tiel
*I *145:A2 I *C 12.6000 52.9200

*CAP
1 *44:3 *8:2 0.151261
2 *44:3 *69 0.00232486
3 *44:3 *85 1.50794
4 *44:3 *42:3 0.139978
5 *88 2.53281
6 *134:ZN 0.0369002
7 *145:A2 0.0928632
8 *44:3 1.1447
9 *44:5 0.0

*RES
1 *88 *44:3 17.1756
2 *134:ZN *44:3 8.46765
3 *134:ZN *44:5 0.001
4 *145:A2 *44:3 9.27695
5 *145:A2 *44:4 0.001
*END

*D_NET *45 10.769

*CONN
*P *89 O *C 4.0000 64.1200
*I *102:I I *C 40.0400 10.3600
*I *135:ZN O *C 37.2400 9.2400 *D gf180mcu_fd_sc_mcu7t5v0__tiel
*I *146:A2 I *C 39.4800 13.7200

*CAP
1 *45:6 *3:2 0.557248
2 *45:6 *6:2 0.0187642
3 *45:6 *7:2 0.0515136
4 *45:8 *7:2 0.0108912
5 *45:8 *57 0.354226
6 *89 *23:5 0.777638
7 *89 *69 0.114488
8 *89 *73 0.100578
9 *45:6 *30:5 0.00269795
10 *45:8 *30:5 0.00260992
11 *45:6 *31:4 0.042761
12 *89 *33:4 0.00275645
13 *45:6 *33:4 0.289844
14 *45:6 *34:5 0.0267297
15 *45:6 *38:4 0.00341357
16 *45:8 *38:4 0.0013661
17 *89 *85 0.0786681
18 *89 *86 0.150477
19 *45:8 *43:3 0.0341452
20 *89 *46:4 0.0223702
21 *89 4.43798
22 *135:ZN 0.331709
23 *45:6 2.99427
24 *45:8 0.361859

*RES
1 *89 *45:6 31.8958
2 *102:I *45:8 4.23383
3 *102:I *45:7 0.001
4 *135:ZN *45:8 13.6351
5 *135:ZN *45:4 0.001
6 *146:A2 *45:6 4.23383
7 *146:A2 *45:5 0.001
8 *45:6 *45:8 0.746016
*END

*D_NET *46 8.72397

*CONN
*P *90 O *C 71.0000 30.5200
*I *103:I I *C 21.5600 18.2000
*I *136:ZN O *C 17.0800 22.6800 *D gf180mcu_fd_sc_mcu7t5v0__tiel