*SPEF "IEEE 1481-1999"
*DESIGN "spare_logic_block"
*DATE "Tue Dec  6 02:12:54 2022"
*VENDOR "Synopsys Inc."
*PROGRAM "StarRC"
*VERSION "T-2022.03-SP3"
*DESIGN_FLOW "PIN_CAP NONE" "NAME_SCOPE LOCAL"
*DIVIDER /
*DELIMITER :
*BUS_DELIMITER []
*T_UNIT 1.0 NS
*C_UNIT 1.0 FF
*R_UNIT 1.0 OHM
*L_UNIT 1.0 HENRY

// COMMENTS

// CORNER_NAME 
// OPERATING_TEMPERATURE -40
// GLOBAL_TEMPERATURE 25
// TCAD_GRD_FILE /home/passant/caravel-gf180mcu/scripts/gf180-tech/gf180mcu_1p5m_1tm_9k_sp_smim_OPTB_bst.nxtgrd
//   TCAD_TIME_STAMP Tue Dec 26 17:55:23 2017
//   TCADGRD_VERSION 75
// galaxy_comments_begin
//   local_nodeid
// galaxy_comments_end

*NAME_MAP
*47 spare_xfq[0]
*48 spare_xfq[1]
*49 spare_xi[0]
*50 spare_xi[1]
*51 spare_xi[2]
*52 spare_xi[3]
*53 spare_xib
*54 spare_xmx[0]
*55 spare_xmx[1]
*56 spare_xna[0]
*57 spare_xna[1]
*58 spare_xno[0]
*59 spare_xno[1]
*60 spare_xz[0]
*61 spare_xz[10]
*62 spare_xz[11]
*63 spare_xz[12]
*64 spare_xz[13]
*65 spare_xz[14]
*66 spare_xz[15]
*67 spare_xz[16]
*68 spare_xz[17]
*69 spare_xz[18]
*70 spare_xz[19]
*71 spare_xz[1]
*72 spare_xz[20]
*73 spare_xz[21]
*74 spare_xz[22]
*75 spare_xz[23]
*76 spare_xz[24]
*77 spare_xz[25]
*78 spare_xz[26]
*79 spare_xz[27]
*80 spare_xz[28]
*81 spare_xz[29]
*82 spare_xz[2]
*83 spare_xz[30]
*84 spare_xz[3]
*85 spare_xz[4]
*86 spare_xz[5]
*87 spare_xz[6]
*88 spare_xz[7]
*89 spare_xz[8]
*90 spare_xz[9]
*91 ANTENNA_spare_logic_biginv_I
*92 ANTENNA_spare_logic_flop\[0\]_CLK
*93 ANTENNA_spare_logic_flop\[0\]_RN
*94 ANTENNA_spare_logic_flop\[0\]_SETN
*95 ANTENNA_spare_logic_flop\[1\]_CLK
*96 ANTENNA_spare_logic_flop\[1\]_D
*97 ANTENNA_spare_logic_flop\[1\]_RN
*98 ANTENNA_spare_logic_flop\[1\]_SETN
*99 ANTENNA_spare_logic_inv\[3\]_I
*100 ANTENNA_spare_logic_mux\[1\]_I1
*101 ANTENNA_spare_logic_mux\[1\]_S
*102 ANTENNA_spare_logic_nand\[1\]_A2
*103 ANTENNA_spare_logic_nor\[0\]_A1
*104 ANTENNA_spare_logic_nor\[1\]_A1
*105 spare_logic_biginv
*106 spare_logic_const_one[0]
*107 spare_logic_const_one[1]
*108 spare_logic_const_one[2]
*109 spare_logic_const_one[3]
*110 spare_logic_const_zero[0]
*111 spare_logic_const_zero[10]
*112 spare_logic_const_zero[11]
*113 spare_logic_const_zero[12]
*114 spare_logic_const_zero[13]
*115 spare_logic_const_zero[14]
*116 spare_logic_const_zero[15]
*117 spare_logic_const_zero[16]
*118 spare_logic_const_zero[17]
*119 spare_logic_const_zero[18]
*120 spare_logic_const_zero[19]
*121 spare_logic_const_zero[1]
*122 spare_logic_const_zero[20]
*123 spare_logic_const_zero[21]
*124 spare_logic_const_zero[22]
*125 spare_logic_const_zero[23]
*126 spare_logic_const_zero[24]
*127 spare_logic_const_zero[25]
*128 spare_logic_const_zero[26]
*129 spare_logic_const_zero[2]
*130 spare_logic_const_zero[3]
*131 spare_logic_const_zero[4]
*132 spare_logic_const_zero[5]
*133 spare_logic_const_zero[6]
*134 spare_logic_const_zero[7]
*135 spare_logic_const_zero[8]
*136 spare_logic_const_zero[9]
*137 spare_logic_flop[0]
*138 spare_logic_flop[1]
*139 spare_logic_inv[0]
*140 spare_logic_inv[1]
*141 spare_logic_inv[2]
*142 spare_logic_inv[3]
*143 spare_logic_mux[0]
*144 spare_logic_mux[1]
*145 spare_logic_nand[0]
*146 spare_logic_nand[1]
*147 spare_logic_nor[0]
*148 spare_logic_nor[1]
*3 spare_xfq[0]
*4 spare_xfq[1]
*5 spare_xi[0]
*6 spare_xi[1]
*7 spare_xi[2]
*8 spare_xi[3]
*9 spare_xib
*10 spare_xmx[0]
*11 spare_xmx[1]
*12 spare_xna[0]
*13 spare_xna[1]
*14 spare_xno[0]
*15 spare_xno[1]
*16 spare_xz[0]
*17 spare_xz[10]
*18 spare_xz[11]
*19 spare_xz[12]
*20 spare_xz[13]
*21 spare_xz[14]
*22 spare_xz[15]
*23 spare_xz[16]
*24 spare_xz[17]
*25 spare_xz[18]
*26 spare_xz[19]
*27 spare_xz[1]
*28 spare_xz[20]
*29 spare_xz[21]
*30 spare_xz[22]
*31 spare_xz[23]
*32 spare_xz[24]
*33 spare_xz[25]
*34 spare_xz[26]
*35 spare_xz[27]
*36 spare_xz[28]
*37 spare_xz[29]
*38 spare_xz[2]
*39 spare_xz[30]
*40 spare_xz[3]
*41 spare_xz[4]
*42 spare_xz[5]
*43 spare_xz[6]
*44 spare_xz[7]
*45 spare_xz[8]
*46 spare_xz[9]

*PORTS

*47 O
*48 O
*49 O
*50 O
*51 O
*52 O
*53 O
*54 O
*55 O
*56 O
*57 O
*58 O
*59 O
*60 O
*61 O
*62 O
*63 O
*64 O
*65 O
*66 O
*67 O
*68 O
*69 O
*70 O
*71 O
*72 O
*73 O
*74 O
*75 O
*76 O
*77 O
*78 O
*79 O
*80 O
*81 O
*82 O
*83 O
*84 O
*85 O
*86 O
*87 O
*88 O
*89 O
*90 O

*D_NET *3 4.80719

*CONN
*P *47 O *C 4.0000 23.8000
*I *137:Q O *C 29.4000 14.2800 *D gf180mcu_fd_sc_mcu7t5v0__dffrsnq_2

*CAP
1 *3:2 *62 0.0763624
2 *3:2 *67 0.0405636
3 *47 *29:5 0.148694
4 *47 *29:6 0.0814501
5 *3:2 *30:4 0.00733824
6 *3:2 *31:4 0.607497
7 *3:2 *33:4 0.00787097
8 *3:2 *45:6 0.557319
9 *3:2 *46:4 0.102356
10 *3:2 *46:5 0.322525
11 *47 1.35582
12 *137:Q 0.57882
13 *3:2 0.920574
14 *3:3 0.0

*RES
1 *47 *3:2 9.43928
2 *137:Q *3:2 15.3547
3 *137:Q *3:3 0.001
*END

*D_NET *4 3.24881

*CONN
*P *48 O *C 67.4800 4.0000
*I *138:Q O *C 60.2000 17.6400 *D gf180mcu_fd_sc_mcu7t5v0__dffrsnq_2

*CAP
1 *48 *9:2 0.119505
2 *4:2 *28:4 0.2645
3 *4:2 *75 0.0911098
4 *48 *32:6 0.00202129
5 *4:2 *32:6 0.067851
6 *48 *77 0.548104
7 *4:2 *77 0.217657
8 *48 *34:6 0.00421318
9 *4:2 *34:6 0.00729004
10 *48 1.4963
11 *4:2 0.430258
12 *4:3 0.0

*RES
1 *48 *4:2 13.1758
2 *138:Q *4:2 4.23383
3 *138:Q *4:3 0.001
*END

*D_NET *5 3.06727

*CONN
*P *49 O *C 33.8800 66.0000
*I *139:ZN O *C 40.0400 52.3600 *D gf180mcu_fd_sc_mcu7t5v0__inv_2

*CAP
1 *5:2 *8:2 0.218225
2 *5:2 *11:2 0.448758
3 *5:2 *16:3 0.0674475
4 *5:2 *71 0.164339
5 *5:2 *40:5 0.0174223
6 *5:2 *40:6 0.102969
7 *49 0.362241
8 *139:ZN 0.436479
9 *5:2 1.24939
10 *5:3 0.0

*RES
1 *49 *5:2 3.04956
2 *139:ZN *5:3 0.001
3 *139:ZN *5:2 14.1114
*END

*D_NET *6 5.23731

*CONN
*P *50 O *C 27.1600 4.0000
*I *140:ZN O *C 35.0000 28.8400 *D gf180mcu_fd_sc_mcu7t5v0__inv_2

*CAP
1 *6:2 *23:5 0.0329483
2 *50 *74 0.00513907
3 *140:ZN *30:4 0.00407495
4 *140:ZN *30:5 0.00549627
5 *6:2 *74 0.0703339
6 *6:2 *30:4 0.00107175
7 *6:2 *30:5 0.365113
8 *140:ZN *31:4 0.0212001
9 *6:2 *31:4 0.785853
10 *140:ZN *93:I 0.0226652
11 *6:2 *33:4 0.845658
12 *6:2 *34:5 0.100457
13 *140:ZN *38:4 0.0717434
14 *6:2 *45:6 0.018792
15 *50 0.367334
16 *140:ZN 1.25914
17 *6:2 1.26029
18 *6:4 0.0

*RES
1 *50 *6:2 1.4121
2 *140:ZN *6:2 18.5264
3 *140:ZN *6:4 0.001
4 *140:ZN *6:3 0.001
*END

*D_NET *7 3.82496

*CONN
*P *51 O *C 71.0000 10.3600
*I *141:ZN O *C 36.1200 13.1600 *D gf180mcu_fd_sc_mcu7t5v0__inv_2

*CAP
1 *7:2 *57 0.036629
2 *7:2 *59 0.0134648
3 *7:2 *75 0.00344474
4 *7:2 *93:I 0.0573978
5 *7:2 *33:4 0.0301715
6 *7:2 *38:4 0.00384962
7 *7:2 *43:3 0.211528
8 *7:2 *45:6 0.0515335
9 *7:2 *45:8 0.0109021
10 *51 0.417382
11 *141:ZN 0.365161
12 *7:2 2.6235
13 *7:4 0.0

*RES
1 *51 *7:2 2.02934
2 *141:ZN *7:4 0.001
3 *141:ZN *7:3 0.001
4 *141:ZN *7:2 14.8676
*END

*D_NET *8 3.53077

*CONN
*P *52 O *C 4.0000 50.6800
*I *142:ZN O *C 35.0000 52.3600 *D gf180mcu_fd_sc_mcu7t5v0__inv_2

*CAP
1 *8:2 *5:2 0.218225
2 *8:2 *144:Z 0.0481827
3 *8:2 *11:2 0.0431531
4 *8:2 *12:3 0.202929
5 *8:2 *69 0.0105951
6 *8:2 *73 0.0127095
7 *8:2 *40:6 0.0188152
8 *8:2 *42:3 0.317336
9 *8:2 *44:3 0.151362
10 *52 0.403463
11 *142:ZN 0.0515737
12 *8:2 2.05243
13 *8:4 0.0

*RES
1 *52 *8:2 4.95124
2 *142:ZN *8:4 0.001
3 *142:ZN *8:2 10.8356
4 *142:ZN *8:3 0.001
*END

*D_NET *9 6.55011

*CONN
*P *53 O *C 71.0000 3.6400
*I *105:ZN O *C 43.9575 34.0350 *D gf180mcu_fd_sc_mcu7t5v0__inv_12

*CAP
1 *9:2 *48 0.119505
2 *9:5 *17:4 0.117013
3 *9:5 *21:3 0.108529
4 *9:5 *28:5 0.001449
5 *9:2 *75 0.0510386
6 *9:2 *32:6 0.36073
7 *9:2 *34:6 0.0174223
8 *9:2 *37:2 0.303611
9 *9:5 *90 0.0986925
10 *53 0.792231
11 *105:ZN 0.0547894
12 *9:2 3.63304
13 *9:3 0.0683236
14 *9:5 0.823728
15 *9:7 0.0

*RES
1 *53 *9:2 10.2131
2 *105:ZN *9:5 0.001
3 *105:ZN *9:6 0.001
4 *105:ZN *9:7 7.97822
5 *9:2 *9:5 19.4822
6 *9:3 *9:6 0.001
7 *9:3 *9:7 0.313034
8 *9:4 *9:5 0.001
*END

*D_NET *10 4.82668

*CONN
*P *54 O *C 74.2000 4.0000
*I *143:Z O *C 65.8000 51.8000 *D gf180mcu_fd_sc_mcu7t5v0__mux2_2

*CAP
1 *143:Z *11:2 0.112832
2 *10:2 *11:2 0.0876201
3 *143:Z *63 0.0425574
4 *54 1.11685
5 *143:Z 0.325706
6 *10:2 3.14112
7 *10:3 0.0

*RES
1 *54 *10:2 8.80121
2 *143:Z *10:3 0.001
3 *143:Z *10:2 16.5716
*END

*D_NET *11 6.74777

*CONN
*P *55 O *C 71.0000 50.6800
*I *144:Z O *C 35.0000 41.7200 *D gf180mcu_fd_sc_mcu7t5v0__mux2_2

*CAP
1 *11:2 *5:2 0.448758
2 *144:Z *8:2 0.0481827
3 *11:2 *8:2 0.0431531
4 *11:2 *143:Z 0.112832
5 *11:2 *10:2 0.0876201
6 *11:2 *16:3 1.53234
7 *11:2 *63 0.0753431
8 *11:2 *19:3 0.0151141
9 *11:2 *20:3 0.57813
10 *11:2 *22:3 0.00444376
11 *144:Z *23:7 0.0132157
12 *144:Z *25:6 0.00150281
13 *144:Z *71 0.0374564
14 *11:2 *32:4 0.00897531
15 *55 0.363303
16 *144:Z 0.955296
17 *11:2 2.42211
18 *11:3 0.0

*RES
1 *55 *11:2 3.14392
2 *144:Z *11:2 15.8035
3 *144:Z *11:3 0.001
*END

*D_NET *12 2.6247

*CONN
*P *56 O *C 0.2800 66.0000
*I *145:ZN O *C 9.8000 54.0400 *D gf180mcu_fd_sc_mcu7t5v0__nand2_2

*CAP
1 *12:3 *8:2 0.202929
2 *12:3 *69 0.144528
3 *56 *73 0.0276191
4 *12:3 *73 0.494476
5 *12:3 *80 0.144444
6 *56 0.362241
7 *145:ZN 0.321129
8 *12:3 0.927333
9 *12:4 0.0

*RES
1 *56 *12:3 2.67655
2 *145:ZN *12:3 14.8574
3 *145:ZN *12:4 0.001
4 *145:ZN *12:2 0.001
*END

*D_NET *13 1.48848

*CONN
*P *57 O *C 40.6000 4.0000
*I *146:ZN O *C 40.6000 13.1600 *D gf180mcu_fd_sc_mcu7t5v0__nand2_2

*CAP
1 *57 *7:2 0.036629
2 *57 *43:3 0.0924782
3 *57 *45:8 0.354241
4 *57 1.00513
5 *13:3 0.0

*RES
1 *57 *13:3 2.05487
2 *146:ZN *13:3 4.23383
3 *146:ZN *13:2 0.001
*END

*D_NET *14 1.08979

*CONN
*P *58 O *C 4.0000 17.0800
*I *147:ZN O *C 11.4800 17.0800 *D gf180mcu_fd_sc_mcu7t5v0__nor2_2

*CAP
1 *58 *62 0.0126916
2 *58 *137:CLK 0.0145707
3 *58 *29:5 0.114648
4 *58 *34:5 0.147645
5 *58 0.715713
6 *14:2 0.0845236
7 *14:3 0.0

*RES
1 *58 *14:2 5.91569
2 *147:ZN *14:2 4.23383
3 *147:ZN *14:3 0.001
*END

*D_NET *15 5.38988

*CONN
*P *59 O *C 54.0400 4.0000
*I *148:ZN O *C 55.1275 35.9450 *D gf180mcu_fd_sc_mcu7t5v0__nor2_2

*CAP
1 *59 *7:2 0.0134648
2 *15:2 *19:3 0.0358639
3 *15:2 *32:4 1.27879
4 *15:2 *32:6 0.476513
5 *15:2 *34:6 0.38427
6 *59 0.903059
7 *15:2 2.29792
8 *15:9 0.0

*RES
1 *59 *15:2 6.19459
2 *148:ZN *15:3 0.001
3 *148:ZN *15:7 0.001
4 *15:2 *15:5 5.44055
5 *15:4 *15:5 0.001
6 *15:5 *15:7 0.001
7 *15:6 *15:7 0.001
8 *15:7 *15:9 0.001
9 *15:7 *15:8 0.001
*END

*D_NET *16 6.05559

*CONN
*P *60 O *C 71.0000 57.4000
*I *110:ZN O *C 40.0400 48.4400 *D gf180mcu_fd_sc_mcu7t5v0__tiel
*I *139:I I *C 41.1600 52.9200

*CAP
1 *16:3 *5:2 0.0674475
2 *16:3 *11:2 1.53234
3 *60 *63 0.00539802
4 *60 *19:3 0.0140011
5 *60 *20:3 0.00277786
6 *16:3 *20:3 0.0187845
7 *60 *22:3 0.215397
8 *60 *24:4 0.00187449
9 *16:3 *71 0.143779
10 *60 *32:4 0.56884
11 *60 *40:6 0.629794
12 *16:3 *40:6 0.128938
13 *60 1.34537
14 *110:ZN 0.0870025
15 *16:3 1.29385
16 *16:5 0.0

*RES
1 *60 *16:3 20.5513
2 *110:ZN *16:4 0.001
3 *110:ZN *16:3 5.32177
4 *139:I *16:5 0.001
5 *139:I *16:3 4.37925
*END

*D_NET *17 7.36407

*CONN
*P *61 O *C 4.0000 37.2400
*I *104:I I *C 50.6800 33.8800
*I *111:ZN O *C 48.4400 37.8000 *D gf180mcu_fd_sc_mcu7t5v0__tiel
*I *148:A1 I *C 52.9200 37.2400

*CAP
1 *17:4 *9:5 0.117013
2 *104:I *19:3 0.00352888
3 *104:I *21:3 0.00414896
4 *17:4 *21:3 0.568164
5 *17:4 *23:5 0.828581
6 *17:4 *23:7 0.00733122
7 *61 *25:5 0.400907
8 *17:4 *25:5 0.37147
9 *17:4 *25:6 0.0323542
10 *104:I *28:5 0.0310377
11 *17:4 *28:5 0.0730647
12 *61 *41:5 0.614353
13 *17:4 *41:5 0.598414
14 *61 0.980676
15 *104:I 0.166527
16 *111:ZN 0.0744375
17 *148:A1 0.0844008
18 *17:4 2.0989
19 *17:5 0.308761
20 *17:8 0.0

*RES
1 *61 *17:4 9.86695
2 *104:I *17:5 9.13152
3 *104:I *17:7 0.001
4 *111:ZN *17:4 8.63417
5 *111:ZN *17:6 0.001
6 *148:A1 *17:5 9.15261
7 *148:A1 *17:8 0.001
8 *17:4 *17:5 0.62168
*END

*D_NET *18 2.37679

*CONN
*P *62 O *C 13.7200 4.0000
*I *112:ZN O *C 18.2000 16.5200 *D gf180mcu_fd_sc_mcu7t5v0__tiel
*I *147:A2 I *C 13.7200 18.2000

*CAP
1 *62 *3:2 0.0763624
2 *62 *58 0.0126916
3 *62 *26:3 0.0460435
4 *62 *34:5 0.0347657
5 *62 *46:4 0.259807
6 *62 1.68436
7 *112:ZN 0.10042
8 *18:3 0.162334
9 *18:5 0.0

*RES
1 *62 *18:3 2.7798
2 *112:ZN *18:5 0.001
3 *112:ZN *18:3 13.7384
4 *147:A2 *18:4 0.001
5 *147:A2 *18:3 4.62793
*END

*D_NET *19 5.46331

*CONN
*P *63 O *C 67.4800 66.0000
*I *113:ZN O *C 56.8400 40.0400 *D gf180mcu_fd_sc_mcu7t5v0__tiel
*I *148:A2 I *C 55.1600 37.2400

*CAP
1 *63 *143:Z 0.0425574
2 *63 *11:2 0.0753431
3 *19:3 *11:2 0.0151141
4 *19:3 *15:2 0.0358639
5 *63 *60 0.00539802
6 *19:3 *60 0.0140011
7 *19:3 *104:I 0.00352888
8 *63 *20:3 0.00190632
9 *19:3 *20:3 0.540423
10 *19:3 *21:3 0.0824086
11 *63 *66 0.0109841
12 *63 *22:3 0.0678054
13 *19:3 *22:3 0.00371618
14 *19:3 *24:4 0.00259975
15 *19:3 *72 0.0557521
16 *19:3 *32:4 0.395958
17 *63 *84 0.108661
18 *63 *40:6 0.0721574
19 *63 1.85909
20 *113:ZN 0.0350371
21 *148:A2 0.203879
22 *19:3 1.83113
23 *19:5 0.0

*RES
1 *63 *19:3 20.9543
2 *113:ZN *19:3 8.46765
3 *113:ZN *19:5 0.001
4 *148:A2 *19:3 9.52562
5 *148:A2 *19:4 0.001
*END

*D_NET *20 4.63484

*CONN
*P *64 O *C 47.3200 66.0000
*I *114:ZN O *C 60.7600 48.4400 *D gf180mcu_fd_sc_mcu7t5v0__tiel
*I *143:I0 I *C 60.2000 53.4800

*CAP
1 *20:3 *11:2 0.57813
2 *20:3 *60 0.00277786
3 *20:3 *16:3 0.0187845
4 *20:3 *63 0.00190632
5 *20:3 *19:3 0.540423
6 *20:3 *24:4 0.00843969
7 *64 2.40699
8 *114:ZN 0.0763732
9 *20:3 1.00101
10 *20:5 0.0

*RES
1 *64 *20:3 14.9165
2 *114:ZN *20:3 4.60683
3 *114:ZN *20:5 0.001
4 *143:I0 *20:4 0.001
5 *143:I0 *20:3 5.00093
*END

*D_NET *21 3.95872

*CONN
*P *65 O *C 71.0000 37.2400
*I *115:ZN O *C 42.8400 38.3600 *D gf180mcu_fd_sc_mcu7t5v0__tiel
*I *144:I0 I *C 40.6000 40.6000

*CAP
1 *21:3 *9:5 0.108529
2 *21:3 *104:I 0.00414896
3 *21:3 *17:4 0.568164
4 *21:3 *19:3 0.0824086
5 *21:3 *25:5 0.0027266
6 *21:3 *25:6 0.0824795
7 *21:3 *71 0.0938649
8 *65 1.46984
9 *115:ZN 0.044947
10 *144:I0 0.124056
11 *21:3 1.37755
12 *21:5 0.0

*RES
1 *65 *21:3 6.50099
2 *115:ZN *21:5 0.001
3 *115:ZN *21:3 8.46765
4 *144:I0 *21:4 0.001
5 *144:I0 *21:3 9.52562
*END

*D_NET *22 3.41612

*CONN
*P *66 O *C 60.7600 66.0000
*I *116:ZN O *C 56.8400 54.0400 *D gf180mcu_fd_sc_mcu7t5v0__tiel
*I *143:I1 I *C 64.1200 52.9200

*CAP
1 *22:3 *11:2 0.00444376
2 *22:3 *60 0.215397
3 *66 *63 0.0109841
4 *22:3 *63 0.0678054
5 *22:3 *19:3 0.00371618
6 *66 *24:4 0.304897
7 *22:3 *24:4 0.0025197
8 *22:3 *32:4 0.0187943
9 *22:3 *40:6 0.689422
10 *66 0.769673
11 *116:ZN 0.254123
12 *143:I1 0.161623
13 *22:3 0.912717
14 *22:5 0.0

*RES
1 *66 *22:3 6.53737
2 *116:ZN *22:3 9.77429
3 *116:ZN *22:4 0.001
4 *143:I1 *22:3 9.89863
5 *143:I1 *22:5 0.001
*END

*D_NET *23 8.40472

*CONN
*P *67 O *C 4.0000 10.3600
*I *100:I I *C 31.6400 40.0400
*I *117:ZN O *C 32.7600 37.8000 *D gf180mcu_fd_sc_mcu7t5v0__tiel
*I *144:I1 I *C 36.6800 41.1600

*CAP
1 *67 *3:2 0.0405636
2 *23:5 *6:2 0.0329483
3 *23:7 *144:Z 0.0132157
4 *23:5 *17:4 0.828581
5 *23:7 *17:4 0.00733122
6 *23:5 *25:5 0.0181161
7 *23:7 *25:5 0.0784184
8 *23:7 *25:6 0.0552242
9 *67 *70 0.347737
10 *23:7 *71 0.00219737
11 *23:5 *29:6 0.0262636
12 *67 *74 0.035251
13 *67 *31:4 0.0200869
14 *23:5 *31:4 0.00992328
15 *23:5 *33:4 0.341026
16 *23:5 *85 0.0765458
17 *23:7 *41:5 0.0155984
18 *23:5 *89 0.777733
19 *67 2.69798
20 *117:ZN 0.102762
21 *144:I1 0.253923
22 *23:4 0.070079
23 *23:5 1.82469
24 *23:7 0.728526
25 *23:9 0.0

*RES
1 *67 *23:5 20.5327
2 *100:I *23:7 4.23383
3 *100:I *23:6 0.001
4 *100:I *23:4 0.001
5 *117:ZN *23:8 0.001
6 *117:ZN *23:5 9.02827
7 *144:I1 *23:9 0.001
8 *144:I1 *23:7 14.1325
9 *23:5 *23:7 5.00093
*END

*D_NET *24 2.30695

*CONN
*P *68 O *C 71.0000 64.1200
*I *118:ZN O *C 62.4400 56.2800 *D gf180mcu_fd_sc_mcu7t5v0__tiel
*I *143:S I *C 63.0000 53.4800

*CAP
1 *24:4 *60 0.00187449
2 *24:4 *19:3 0.00259975
3 *24:4 *20:3 0.00843969
4 *24:4 *66 0.304897
5 *24:4 *22:3 0.0025197
6 *68 *84 0.0824033
7 *24:4 *40:6 0.00997216
8 *68 0.715578
9 *143:S 0.0557033
10 *24:4 1.12296
11 *24:5 0.0

*RES
1 *68 *24:4 7.91728
2 *118:ZN *24:4 4.23383
3 *118:ZN *24:3 0.001
4 *143:S *24:5 0.001
5 *143:S *24:4 4.8766
*END

*D_NET *25 8.41458

*CONN
*P *69 O *C 13.7200 66.0000
*I *101:I I *C 43.4000 40.0400
*I *119:ZN O *C 35.5600 38.3600 *D gf180mcu_fd_sc_mcu7t5v0__tiel
*I *144:S I *C 37.8000 40.6000

*CAP
1 *69 *8:2 0.0105951
2 *25:6 *144:Z 0.00150281
3 *69 *12:3 0.144528
4 *25:5 *61 0.400907
5 *25:5 *17:4 0.37147
6 *25:6 *17:4 0.0323542
7 *25:5 *21:3 0.0027266
8 *25:6 *21:3 0.0824795
9 *25:5 *23:5 0.0181161
10 *25:5 *23:7 0.0784184
11 *25:6 *23:7 0.0552242
12 *25:6 *71 0.0503283
13 *69 *73 0.0586452
14 *69 *80 0.0366176
15 *69 *83 0.0355352
16 *69 *85 0.0285702
17 *25:5 *85 1.20562
18 *69 *42:3 0.0588725
19 *69 *44:3 0.00232775
20 *69 *89 0.11455
21 *69 2.93889
22 *101:I 0.284827
23 *119:ZN 0.0284053
24 *25:4 0.070833
25 *25:5 1.74216
26 *25:6 0.56007
27 *25:9 0.0

*RES
1 *69 *25:5 17.6854
2 *101:I *25:6 13.987
3 *101:I *25:9 0.001
4 *101:I *25:4 0.001
5 *119:ZN *25:5 8.46765
6 *119:ZN *25:7 0.001
7 *144:S *25:8 0.001
8 *144:S *25:6 4.37925
9 *25:5 *25:6 5.14636
*END

*D_NET *26 2.34019

*CONN
*P *70 O *C 0.2800 4.0000
*I *120:ZN O *C 10.9200 8.6800 *D gf180mcu_fd_sc_mcu7t5v0__tiel
*I *137:D I *C 10.9200 13.7200

*CAP
1 *26:3 *62 0.0460435
2 *70 *67 0.347737
3 *26:3 *137:CLK 0.0177696
4 *26:3 *78 0.0189994
5 *70 0.989818
6 *26:3 0.91982
7 *26:5 0.0

*RES
1 *70 *26:3 11.9324
2 *120:ZN *26:3 4.23383
3 *120:ZN *26:4 0.001
4 *137:D *26:5 0.001
5 *137:D *26:3 5.37394
*END

*D_NET *27 4.70356

*CONN
*P *71 O *C 40.6000 66.0000
*I *121:ZN O *C 39.4800 37.8000 *D gf180mcu_fd_sc_mcu7t5v0__tiel
*I *140:I I *C 36.6800 29.4000

*CAP
1 *71 *5:2 0.164339
2 *71 *144:Z 0.0374564
3 *71 *16:3 0.143779
4 *71 *21:3 0.0938649
5 *71 *23:7 0.00219737
6 *71 *25:6 0.0503283
7 *71 *40:6 0.0357744
8 *71 1.57887
9 *140:I 0.0830241
10 *27:3 2.51393
11 *27:5 0.0

*RES
1 *71 *27:3 6.52542
2 *121:ZN *27:5 0.001
3 *121:ZN *27:3 4.23383
4 *140:I *27:3 6.67392
5 *140:I *27:4 0.001
*END

*D_NET *28 9.77369

*CONN
*P *72 O *C 71.0000 43.9600
*I *96:I I *C 63.0000 18.2000
*I *122:ZN O *C 47.8800 14.8400 *D gf180mcu_fd_sc_mcu7t5v0__tiel
*I *138:D I *C 42.2800 17.6400

*CAP
1 *28:4 *4:2 0.2645
2 *28:5 *9:5 0.001449
3 *28:5 *104:I 0.0310377
4 *28:5 *17:4 0.0730647
5 *72 *19:3 0.0557521
6 *28:4 *30:5 0.014302
7 *28:4 *75 0.000824608
8 *28:4 *31:5 0.0741653
9 *28:4 *32:6 1.03426
10 *28:4 *77 0.86881
11 *28:4 *33:4 0.0265571
12 *28:4 *34:5 1.11587
13 *28:4 *34:6 0.00688092
14 *28:5 *34:6 0.0130851
15 *28:4 *43:3 0.00223442
16 *28:5 *90 0.0750804
17 *72 3.03675
18 *96:I 0.0589138
19 *138:D 0.0635486
20 *28:4 0.620426
21 *28:5 2.33617
22 *28:8 0.0

*RES
1 *72 *28:5 15.1898
2 *96:I *28:4 11.9702
3 *96:I *28:8 0.001
4 *122:ZN *28:5 4.8766
5 *122:ZN *28:7 0.001
6 *138:D *28:4 9.73211
7 *138:D *28:6 0.001
8 *28:4 *28:5 4.23383
*END

*D_NET *29 8.95594

*CONN
*P *73 O *C 7.0000 66.0000
*I *92:I I *C 27.1600 18.2000
*I *123:ZN O *C 11.4800 22.1200 *D gf180mcu_fd_sc_mcu7t5v0__tiel
*I *137:CLK I *C 9.2400 13.7200

*CAP
1 *29:5 *47 0.148694
2 *29:6 *47 0.0814501
3 *73 *8:2 0.0127095
4 *73 *56 0.0276191
5 *73 *12:3 0.494476
6 *137:CLK *58 0.0145707
7 *29:5 *58 0.114648
8 *29:6 *23:5 0.0262636
9 *73 *69 0.0586452
10 *137:CLK *26:3 0.0177696
11 *29:6 *31:4 0.102792
12 *29:6 *31:5 0.0437408
13 *29:6 *33:4 0.00481688
14 *137:CLK *78 0.0635747
15 *29:5 *34:5 0.106119
16 *29:6 *34:5 0.412049
17 *73 *83 0.0101406
18 *73 *89 0.100639
19 *29:6 *46:4 0.0206115
20 *73 3.14045
21 *92:I 0.213843
22 *123:ZN 0.132084
23 *137:CLK 0.411204
24 *29:5 1.76073
25 *29:6 1.4363
26 *29:9 0.0

*RES
1 *73 *29:5 18.3704
2 *92:I *29:9 0.001
3 *92:I *29:6 12.4941
4 *123:ZN *29:8 0.001
5 *123:ZN *29:6 8.88285
6 *137:CLK *29:7 0.001
7 *137:CLK *29:4 0.001
8 *137:CLK *29:5 10.0019
9 *29:5 *29:6 0.512886
*END

*D_NET *30 5.83513

*CONN
*P *74 O *C 4.0000 3.6400
*I *95:I I *C 38.3600 21.0000
*I *124:ZN O *C 31.6400 8.6800 *D gf180mcu_fd_sc_mcu7t5v0__tiel
*I *138:CLK I *C 39.4800 17.6400

*CAP
1 *30:4 *3:2 0.00733824
2 *74 *50 0.00513907
3 *30:4 *140:ZN 0.00407495
4 *30:5 *140:ZN 0.00549627
5 *74 *6:2 0.0703339
6 *30:4 *6:2 0.00107175
7 *30:5 *6:2 0.365113
8 *74 *67 0.035251
9 *30:5 *28:4 0.014302
10 *74 *31:4 0.0338779
11 *30:4 *31:4 0.0225861
12 *30:5 *31:5 0.053357
13 *30:4 *93:I 0.00585878
14 *30:4 *33:4 0.0148567
15 *30:5 *33:4 0.201126
16 *30:5 *34:5 0.367716
17 *74 *79 0.0631832
18 *30:4 *38:4 0.108459
19 *30:5 *45:6 0.00270493
20 *30:5 *45:8 0.00260987
21 *74 2.1209
22 *95:I 0.0248045
23 *30:4 2.12395
24 *30:5 0.181016
25 *30:8 0.0

*RES
1 *74 *30:4 20.0628
2 *95:I *30:7 0.001
3 *95:I *30:5 5.24961
4 *124:ZN *30:4 4.23383
5 *124:ZN *30:6 0.001
6 *138:CLK *30:5 4.23383
7 *138:CLK *30:8 0.001
8 *30:4 *30:5 12.261
*END

*D_NET *31 8.50356

*CONN
*P *75 O *C 60.7600 4.0000
*I *94:I I *C 32.7600 21.0000
*I *125:ZN O *C 28.2800 9.2400 *D gf180mcu_fd_sc_mcu7t5v0__tiel
*I *137:SETN I *C 23.2400 13.7200

*CAP
1 *31:4 *3:2 0.607497
2 *75 *4:2 0.0911098
3 *31:4 *140:ZN 0.0212001
4 *31:4 *6:2 0.785853
5 *75 *7:2 0.00344474
6 *75 *9:2 0.0510386
7 *31:4 *67 0.0200869
8 *31:4 *23:5 0.00992328
9 *75 *28:4 0.000824608
10 *31:5 *28:4 0.0741653
11 *31:4 *29:6 0.102792
12 *31:5 *29:6 0.0437408
13 *31:4 *74 0.0338779
14 *31:4 *30:4 0.0225861
15 *31:5 *30:5 0.053357
16 *75 *32:6 0.00377044
17 *31:5 *32:6 0.121388
18 *31:4 *33:4 0.00591544
19 *75 *34:6 0.0104155
20 *31:5 *34:5 0.555588
21 *75 *37:2 0.00107134
22 *31:4 *45:6 0.0428139
23 *75 2.87765
24 *94:I 0.0454846
25 *125:ZN 0.358839
26 *137:SETN 0.432736
27 *31:4 0.517102
28 *31:5 1.60929
29 *31:8 0.0

*RES
1 *75 *31:5 14.1274
2 *94:I *31:5 8.63417
3 *94:I *31:8 0.001
4 *125:ZN *31:4 5.24961
5 *125:ZN *31:7 0.001
6 *137:SETN *31:4 13.8627
7 *137:SETN *31:6 0.001
8 *31:4 *31:5 6.77827
*END

*D_NET *32 10.4294

*CONN
*P *76 O *C 54.0400 66.0000
*I *98:I I *C 63.0000 14.8400
*I *126:ZN O *C 54.6000 22.6800 *D gf180mcu_fd_sc_mcu7t5v0__tiel
*I *138:SETN I *C 54.0400 17.6400

*CAP
1 *32:6 *48 0.00202129
2 *32:6 *4:2 0.067851
3 *32:6 *9:2 0.36073
4 *32:4 *11:2 0.00897531
5 *32:4 *15:2 1.27879
6 *32:6 *15:2 0.476513
7 *32:4 *60 0.56884
8 *32:4 *19:3 0.395958
9 *32:4 *22:3 0.0187943
10 *32:6 *28:4 1.03426
11 *32:6 *75 0.00377044
12 *32:6 *31:5 0.121388
13 *32:6 *77 0.0289812
14 *32:6 *34:5 0.0205237
15 *32:6 *34:6 0.0578275
16 *32:6 *37:2 0.0112593
17 *76 *40:6 0.00574123
18 *76 3.31707
19 *98:I 0.173796
20 *126:ZN 0.10797
21 *138:SETN 0.267819
22 *32:4 1.38127
23 *32:5 0.0963469
24 *32:6 0.622897
25 *32:9 0.0

*RES
1 *76 *32:4 10.0068
2 *98:I *32:6 11.1209
3 *98:I *32:9 0.001
4 *98:I *32:5 0.001
5 *126:ZN *32:4 12.9923
6 *126:ZN *32:8 0.001
7 *138:SETN *32:6 9.15261
8 *138:SETN *32:7 0.001
9 *32:4 *32:6 5.10973
*END

*D_NET *33 8.31654

*CONN
*P *77 O *C 71.0000 17.0800
*I *93:I I *C 34.4400 10.3600
*I *127:ZN O *C 30.5200 16.5200 *D gf180mcu_fd_sc_mcu7t5v0__tiel
*I *137:RN I *C 25.4800 13.7200

*CAP
1 *33:4 *3:2 0.00787097
2 *77 *48 0.548104
3 *77 *4:2 0.217657
4 *93:I *140:ZN 0.0226652
5 *33:4 *6:2 0.845658
6 *93:I *7:2 0.0573978
7 *33:4 *7:2 0.0301715
8 *33:4 *23:5 0.341026
9 *77 *28:4 0.86881
10 *33:4 *28:4 0.0265571
11 *33:4 *29:6 0.00481688
12 *93:I *30:4 0.00585878
13 *33:4 *30:4 0.0148567
14 *33:4 *30:5 0.201126
15 *33:4 *31:4 0.00591544
16 *77 *32:6 0.0289812
17 *77 *34:5 0.490585
18 *77 *34:6 0.141225
19 *33:4 *34:5 0.0843351
20 *93:I *38:4 0.414371
21 *33:4 *38:4 0.0104087
22 *33:4 *43:3 0.0080222
23 *33:4 *89 0.00275889
24 *33:4 *45:6 0.29003
25 *77 1.55904
26 *93:I 0.0226442
27 *127:ZN 0.0554357
28 *137:RN 0.133738
29 *33:4 1.72726
30 *33:5 0.149215
31 *33:8 0.0

*RES
1 *77 *33:4 8.11736
2 *93:I *33:4 9.73211
3 *93:I *33:8 0.001
4 *127:ZN *33:5 8.46765
5 *127:ZN *33:7 0.001
6 *137:RN *33:5 10.2716
7 *137:RN *33:6 0.001
8 *33:4 *33:5 0.994688
*END

*D_NET *34 10.3551

*CONN
*P *78 O *C 7.0000 4.0000
*I *97:I I *C 65.2400 14.8400
*I *128:ZN O *C 51.8000 14.8400 *D gf180mcu_fd_sc_mcu7t5v0__tiel
*I *138:RN I *C 55.7200 17.6400

*CAP
1 *34:6 *48 0.00421318
2 *34:6 *4:2 0.00729004
3 *34:5 *6:2 0.100457
4 *34:6 *9:2 0.0174223
5 *34:5 *58 0.147645
6 *34:6 *15:2 0.38427
7 *34:5 *62 0.0347657
8 *78 *26:3 0.0189994
9 *34:5 *28:4 1.11587
10 *34:6 *28:4 0.00688092
11 *34:6 *28:5 0.0130851
12 *78 *137:CLK 0.0635747
13 *34:5 *29:5 0.106119
14 *34:5 *29:6 0.412049
15 *34:5 *30:5 0.367716
16 *34:6 *75 0.0104155
17 *34:5 *31:5 0.555588
18 *34:5 *32:6 0.0205237
19 *34:6 *32:6 0.0578275
20 *34:5 *77 0.490585
21 *34:6 *77 0.141225
22 *34:5 *33:4 0.0843351
23 *34:5 *45:6 0.026766
24 *34:5 *46:4 0.309292
25 *78 3.81932
26 *97:I 0.505673
27 *128:ZN 0.0803019
28 *34:4 0.0756861
29 *34:5 0.730933
30 *34:6 0.646304
31 *34:9 0.0

*RES
1 *78 *34:5 21.9614
2 *97:I *34:9 0.001
3 *97:I *34:4 0.001
4 *97:I *34:6 15.5212
5 *128:ZN *34:7 0.001
6 *128:ZN *34:5 4.8766
7 *138:RN *34:6 4.23383
8 *138:RN *34:8 0.001
9 *34:5 *34:6 9.38019
*END

*D_NET *35 1.01362

*CONN
*P *79 O *C 20.4400 4.0000
*I *106:Z O *C 20.4400 10.3600 *D gf180mcu_fd_sc_mcu7t5v0__tieh

*CAP
1 *79 *74 0.0631832
2 *79 0.950439
3 *35:3 0.0

*RES
1 *79 *35:3 1.43319
2 *106:Z *35:3 4.23383
3 *106:Z *35:2 0.001
*END

*D_NET *36 1.15181

*CONN
*P *80 O *C 4.0000 57.4000
*I *107:Z O *C 10.9200 57.4000 *D gf180mcu_fd_sc_mcu7t5v0__tieh

*CAP
1 *80 *12:3 0.144444
2 *80 *69 0.0366176
3 *80 0.910511
4 *36:2 0.0602396
5 *36:3 0.0

*RES
1 *80 *36:2 5.79136
2 *107:Z *36:2 4.23383
3 *107:Z *36:3 0.001
*END

*D_NET *37 1.67509

*CONN
*P *81 O *C 71.0000 23.8000
*I *108:Z O *C 63.5600 21.0000 *D gf180mcu_fd_sc_mcu7t5v0__tieh

*CAP
1 *37:2 *9:2 0.303611
2 *37:2 *75 0.00107134
3 *37:2 *32:6 0.0112593
4 *81 0.401551
5 *108:Z 0.16457
6 *37:2 0.793029
7 *37:3 0.0

*RES
1 *81 *37:2 1.67298
2 *108:Z *37:3 0.001
3 *108:Z *37:2 9.13152
*END

*D_NET *38 1.84031

*CONN
*P *82 O *C 33.8800 4.0000
*I *129:ZN O *C 34.4400 16.5200 *D gf180mcu_fd_sc_mcu7t5v0__tiel
*I *141:I I *C 34.4400 13.7200

*CAP
1 *38:4 *140:ZN 0.0717434
2 *38:4 *7:2 0.00384962
3 *38:4 *30:4 0.108459
4 *38:4 *93:I 0.414371
5 *38:4 *33:4 0.0104087
6 *38:4 *45:6 0.00341501
7 *38:4 *45:8 0.00136658
8 *82 0.362241
9 *38:4 0.864454
10 *38:5 0.0

*RES
1 *82 *38:4 2.15812
2 *129:ZN *38:5 0.001
3 *129:ZN *38:4 4.8766
4 *141:I *38:4 4.23383
5 *141:I *38:3 0.001
*END

*D_NET *39 1.0983

*CONN
*P *83 O *C 4.0000 43.9600
*I *109:Z O *C 10.9200 42.2800 *D gf180mcu_fd_sc_mcu7t5v0__tieh

*CAP
1 *83 *69 0.0355352
2 *83 *73 0.0101406
3 *83 0.864467
4 *39:3 0.18816

*RES
1 *83 *39:3 6.20655
2 *109:Z *39:3 4.23383
3 *109:Z *39:2 0.001
*END

*D_NET *40 6.26267

*CONN
*P *84 O *C 74.2000 66.0000
*I *99:I I *C 32.7600 54.0400
*I *130:ZN O *C 38.9200 56.2800 *D gf180mcu_fd_sc_mcu7t5v0__tiel
*I *142:I I *C 36.6800 52.9200

*CAP
1 *40:5 *5:2 0.0174223
2 *40:6 *5:2 0.102969
3 *40:6 *8:2 0.0188152
4 *40:6 *60 0.629794
5 *40:6 *16:3 0.128938
6 *84 *63 0.108661
7 *40:6 *63 0.0721574
8 *40:6 *22:3 0.689422
9 *84 *68 0.0824033
10 *40:6 *24:4 0.00997216
11 *40:6 *71 0.0357744
12 *40:6 *76 0.00574123
13 *84 2.29908
14 *99:I 0.204693
15 *130:ZN 0.0305198
16 *142:I 0.0177958
17 *40:4 0.0759273
18 *40:5 0.591295
19 *40:6 1.14129
20 *40:9 0.0

*RES
1 *84 *40:6 14.7491
2 *99:I *40:5 13.614
3 *99:I *40:7 0.001
4 *99:I *40:4 0.001
5 *130:ZN *40:6 8.46765
6 *130:ZN *40:9 0.001
7 *142:I *40:5 4.50359
8 *142:I *40:8 0.001
9 *40:5 *40:6 5.28624
*END

*D_NET *41 8.09064

*CONN
*P *85 O *C 20.4400 66.0000
*I *91:I I *C 29.4000 33.3200
*I *105:I I *C 32.2000 33.3200
*I *131:ZN O *C 29.4000 37.8000 *D gf180mcu_fd_sc_mcu7t5v0__tiel

*CAP
1 *41:5 *61 0.614353
2 *41:5 *17:4 0.598414
3 *85 *23:5 0.0765458
4 *41:5 *23:7 0.0155984
5 *85 *69 0.0285702
6 *85 *25:5 1.20562
7 *85 *44:3 1.508
8 *85 *89 0.0787108
9 *85 2.01659
10 *105:I 0.171609
11 *41:4 0.720751
12 *41:5 1.05588
13 *41:8 0.0

*RES
1 *85 *41:5 18.7709
2 *91:I *41:4 4.23383
3 *91:I *41:6 0.001
4 *105:I *41:4 13.3653
5 *105:I *41:8 0.001
6 *131:ZN *41:5 4.23383
7 *131:ZN *41:7 0.001
8 *41:4 *41:5 1.01578
*END

*D_NET *42 4.13002

*CONN
*P *86 O *C 27.1600 66.0000
*I *132:ZN O *C 12.6000 48.4400 *D gf180mcu_fd_sc_mcu7t5v0__tiel
*I *145:A1 I *C 12.0400 53.4800

*CAP
1 *42:3 *8:2 0.317336
2 *42:3 *69 0.0588725
3 *42:3 *44:3 0.139978
4 *86 *89 0.150582
5 *86 1.81839
6 *132:ZN 0.0542278
7 *42:3 1.59064
8 *42:5 0.0

*RES
1 *86 *42:3 15.4138
2 *132:ZN *42:5 0.001
3 *132:ZN *42:3 4.60683
4 *145:A1 *42:4 0.001
5 *145:A1 *42:3 5.00093
*END

*D_NET *43 1.92447

*CONN
*P *87 O *C 47.3200 4.0000
*I *133:ZN O *C 43.4000 8.6800 *D gf180mcu_fd_sc_mcu7t5v0__tiel
*I *146:A1 I *C 42.2800 14.2800

*CAP
1 *43:3 *7:2 0.211528
2 *43:3 *57 0.0924782
3 *43:3 *28:4 0.00223442
4 *43:3 *33:4 0.0080222
5 *43:3 *45:8 0.0341709
6 *87 0.871952
7 *146:A1 0.0345143
8 *43:3 0.669571
9 *43:5 0.0

*RES
1 *87 *43:3 10.4404
2 *133:ZN *43:3 4.23383
3 *133:ZN *43:5 0.001
4 *146:A1 *43:3 5.73978
5 *146:A1 *43:4 0.001
*END

*D_NET *44 5.60398

*CONN
*P *88 O *C 4.0000 30.5200
*I *134:ZN O *C 15.4000 53.4800 *D gf180mcu_fd_sc_mcu7t5v0__tiel
*I *145:A2 I *C 12.6000 52.9200

*CAP
1 *44:3 *8:2 0.151362
2 *44:3 *69 0.00232775
3 *44:3 *85 1.508
4 *44:3 *42:3 0.139978
5 *88 2.52848
6 *134:ZN 0.0368996
7 *145:A2 0.0928388
8 *44:3 1.14409
9 *44:5 0.0

*RES
1 *88 *44:3 17.1756
2 *134:ZN *44:3 8.46765
3 *134:ZN *44:5 0.001
4 *145:A2 *44:3 9.27695
5 *145:A2 *44:4 0.001
*END

*D_NET *45 10.767

*CONN
*P *89 O *C 4.0000 64.1200
*I *102:I I *C 40.0400 10.3600
*I *135:ZN O *C 37.2400 9.2400 *D gf180mcu_fd_sc_mcu7t5v0__tiel
*I *146:A2 I *C 39.4800 13.7200

*CAP
1 *45:6 *3:2 0.557319
2 *45:6 *6:2 0.018792
3 *45:6 *7:2 0.0515335
4 *45:8 *7:2 0.0109021
5 *45:8 *57 0.354241
6 *89 *23:5 0.777733
7 *89 *69 0.11455
8 *89 *73 0.100639
9 *45:6 *30:5 0.00270493
10 *45:8 *30:5 0.00260987
11 *45:6 *31:4 0.0428139
12 *89 *33:4 0.00275889
13 *45:6 *33:4 0.29003
14 *45:6 *34:5 0.026766
15 *45:6 *38:4 0.00341501
16 *45:8 *38:4 0.00136658
17 *89 *85 0.0787108
18 *89 *86 0.150582
19 *45:8 *43:3 0.0341709
20 *89 *46:4 0.0223737
21 *89 4.43601
22 *135:ZN 0.331703
23 *45:6 2.99354
24 *45:8 0.361766

*RES
1 *89 *45:6 31.8958
2 *102:I *45:8 4.23383
3 *102:I *45:7 0.001
4 *135:ZN *45:4 0.001
5 *135:ZN *45:8 13.6351
6 *146:A2 *45:6 4.23383
7 *146:A2 *45:5 0.001
8 *45:6 *45:8 0.746016
*END

*D_NET *46 8.71386

*CONN
*P *90 O *C 71.0000 30.5200
*I *103:I I *C 21.5600 18.2000
*I *136:ZN O *C 17.0800 22.6800 *D gf180mcu_fd_sc_mcu7t5v0__tiel
*I *147:A1 I *C 14.2800 17.6400

*CAP
1 *46:4 *3:2 0.102356