*SPEF "IEEE 1481-1999"
*DESIGN "mprj_io_buffer"
*DATE "Sun Dec  4 06:08:09 2022"
*VENDOR "Synopsys Inc."
*PROGRAM "StarRC"
*VERSION "T-2022.03-SP3"
*DESIGN_FLOW "PIN_CAP NONE" "NAME_SCOPE LOCAL"
*DIVIDER /
*DELIMITER :
*BUS_DELIMITER []
*T_UNIT 1.0 NS
*C_UNIT 1.0 FF
*R_UNIT 1.0 OHM
*L_UNIT 1.0 HENRY

// COMMENTS

// CORNER_NAME 
// OPERATING_TEMPERATURE 25
// GLOBAL_TEMPERATURE 25
// TCAD_GRD_FILE /home/passant/caravel-gf180mcu/scripts/gf180-tech/gf180mcu_1p5m_1tm_9k_sp_smim_OPTB_typ.nxtgrd
//   TCAD_TIME_STAMP Tue Dec 26 17:52:29 2017
//   TCADGRD_VERSION 75
// galaxy_comments_begin
//   local_nodeid
// galaxy_comments_end

*NAME_MAP
*81 mgmt_gpio_in[0]
*82 mgmt_gpio_in[10]
*83 mgmt_gpio_in[11]
*84 mgmt_gpio_in[12]
*85 mgmt_gpio_in[13]
*86 mgmt_gpio_in[14]
*87 mgmt_gpio_in[15]
*88 mgmt_gpio_in[16]
*89 mgmt_gpio_in[17]
*90 mgmt_gpio_in[1]
*91 mgmt_gpio_in[2]
*92 mgmt_gpio_in[3]
*93 mgmt_gpio_in[4]
*94 mgmt_gpio_in[5]
*95 mgmt_gpio_in[6]
*96 mgmt_gpio_in[7]
*97 mgmt_gpio_in[8]
*98 mgmt_gpio_in[9]
*99 mgmt_gpio_in_buf[0]
*100 mgmt_gpio_in_buf[10]
*101 mgmt_gpio_in_buf[11]
*102 mgmt_gpio_in_buf[12]
*103 mgmt_gpio_in_buf[13]
*104 mgmt_gpio_in_buf[14]
*105 mgmt_gpio_in_buf[15]
*106 mgmt_gpio_in_buf[16]
*107 mgmt_gpio_in_buf[17]
*108 mgmt_gpio_in_buf[1]
*109 mgmt_gpio_in_buf[2]
*110 mgmt_gpio_in_buf[3]
*111 mgmt_gpio_in_buf[4]
*112 mgmt_gpio_in_buf[5]
*113 mgmt_gpio_in_buf[6]
*114 mgmt_gpio_in_buf[7]
*115 mgmt_gpio_in_buf[8]
*116 mgmt_gpio_in_buf[9]
*117 mgmt_gpio_oeb[0]
*118 mgmt_gpio_oeb[1]
*119 mgmt_gpio_oeb[2]
*120 mgmt_gpio_oeb_buf[0]
*121 mgmt_gpio_oeb_buf[1]
*122 mgmt_gpio_oeb_buf[2]
*123 mgmt_gpio_out[0]
*124 mgmt_gpio_out[10]
*125 mgmt_gpio_out[11]
*126 mgmt_gpio_out[12]
*127 mgmt_gpio_out[13]
*128 mgmt_gpio_out[14]
*129 mgmt_gpio_out[15]
*130 mgmt_gpio_out[16]
*131 mgmt_gpio_out[17]
*132 mgmt_gpio_out[1]
*133 mgmt_gpio_out[2]
*134 mgmt_gpio_out[3]
*135 mgmt_gpio_out[4]
*136 mgmt_gpio_out[5]
*137 mgmt_gpio_out[6]
*138 mgmt_gpio_out[7]
*139 mgmt_gpio_out[8]
*140 mgmt_gpio_out[9]
*141 mgmt_gpio_out_buf[0]
*142 mgmt_gpio_out_buf[10]
*143 mgmt_gpio_out_buf[11]
*144 mgmt_gpio_out_buf[12]
*145 mgmt_gpio_out_buf[13]
*146 mgmt_gpio_out_buf[14]
*147 mgmt_gpio_out_buf[15]
*148 mgmt_gpio_out_buf[16]
*149 mgmt_gpio_out_buf[17]
*150 mgmt_gpio_out_buf[1]
*151 mgmt_gpio_out_buf[2]
*152 mgmt_gpio_out_buf[3]
*153 mgmt_gpio_out_buf[4]
*154 mgmt_gpio_out_buf[5]
*155 mgmt_gpio_out_buf[6]
*156 mgmt_gpio_out_buf[7]
*157 mgmt_gpio_out_buf[8]
*158 mgmt_gpio_out_buf[9]
*159 ANTENNA_BUF\[0\]_I
*160 ANTENNA_BUF\[10\]_I
*161 ANTENNA_BUF\[11\]_I
*162 ANTENNA_BUF\[12\]_I
*163 ANTENNA_BUF\[13\]_I
*164 ANTENNA_BUF\[14\]_I
*165 ANTENNA_BUF\[15\]_I
*166 ANTENNA_BUF\[16\]_I
*167 ANTENNA_BUF\[17\]_I
*168 ANTENNA_BUF\[18\]_I
*169 ANTENNA_BUF\[19\]_I
*170 ANTENNA_BUF\[1\]_I
*171 ANTENNA_BUF\[20\]_I
*172 ANTENNA_BUF\[21\]_I
*173 ANTENNA_BUF\[22\]_I
*174 ANTENNA_BUF\[23\]_I
*175 ANTENNA_BUF\[24\]_I
*176 ANTENNA_BUF\[25\]_I
*177 ANTENNA_BUF\[26\]_I
*178 ANTENNA_BUF\[27\]_I
*179 ANTENNA_BUF\[28\]_I
*180 ANTENNA_BUF\[29\]_I
*181 ANTENNA_BUF\[2\]_I
*182 ANTENNA_BUF\[30\]_I
*183 ANTENNA_BUF\[31\]_I
*184 ANTENNA_BUF\[32\]_I
*185 ANTENNA_BUF\[33\]_I
*186 ANTENNA_BUF\[34\]_I
*187 ANTENNA_BUF\[35\]_I
*188 ANTENNA_BUF\[36\]_I
*189 ANTENNA_BUF\[37\]_I
*190 ANTENNA_BUF\[38\]_I
*191 ANTENNA_BUF\[3\]_I
*192 ANTENNA_BUF\[4\]_I
*193 ANTENNA_BUF\[5\]_I
*194 ANTENNA_BUF\[6\]_I
*195 ANTENNA_BUF\[7\]_I
*196 ANTENNA_BUF\[8\]_I
*197 ANTENNA_BUF\[9\]_I
*198 BUF[0]
*199 BUF[10]
*200 BUF[11]
*201 BUF[12]
*202 BUF[13]
*203 BUF[14]
*204 BUF[15]
*205 BUF[16]
*206 BUF[17]
*207 BUF[18]
*208 BUF[19]
*209 BUF[1]
*210 BUF[20]
*211 BUF[21]
*212 BUF[22]
*213 BUF[23]
*214 BUF[24]
*215 BUF[25]
*216 BUF[26]
*217 BUF[27]
*218 BUF[28]
*219 BUF[29]
*220 BUF[2]
*221 BUF[30]
*222 BUF[31]
*223 BUF[32]
*224 BUF[33]
*225 BUF[34]
*226 BUF[35]
*227 BUF[36]
*228 BUF[37]
*229 BUF[38]
*230 BUF[3]
*231 BUF[4]
*232 BUF[5]
*233 BUF[6]
*234 BUF[7]
*235 BUF[8]
*236 BUF[9]
*3 mgmt_gpio_in[0]
*4 mgmt_gpio_in[10]
*5 mgmt_gpio_in[11]
*6 mgmt_gpio_in[12]
*7 mgmt_gpio_in[13]
*8 mgmt_gpio_in[14]
*9 mgmt_gpio_in[15]
*10 mgmt_gpio_in[16]
*11 mgmt_gpio_in[17]
*12 mgmt_gpio_in[1]
*13 mgmt_gpio_in[2]
*14 mgmt_gpio_in[3]
*15 mgmt_gpio_in[4]
*16 mgmt_gpio_in[5]
*17 mgmt_gpio_in[6]
*18 mgmt_gpio_in[7]
*19 mgmt_gpio_in[8]
*20 mgmt_gpio_in[9]
*21 mgmt_gpio_in_buf[0]
*22 mgmt_gpio_in_buf[10]
*23 mgmt_gpio_in_buf[11]
*24 mgmt_gpio_in_buf[12]
*25 mgmt_gpio_in_buf[13]
*26 mgmt_gpio_in_buf[14]
*27 mgmt_gpio_in_buf[15]
*28 mgmt_gpio_in_buf[16]
*29 mgmt_gpio_in_buf[17]
*30 mgmt_gpio_in_buf[1]
*31 mgmt_gpio_in_buf[2]
*32 mgmt_gpio_in_buf[3]
*33 mgmt_gpio_in_buf[4]
*34 mgmt_gpio_in_buf[5]
*35 mgmt_gpio_in_buf[6]
*36 mgmt_gpio_in_buf[7]
*37 mgmt_gpio_in_buf[8]
*38 mgmt_gpio_in_buf[9]
*39 mgmt_gpio_oeb[0]
*40 mgmt_gpio_oeb[1]
*41 mgmt_gpio_oeb[2]
*42 mgmt_gpio_oeb_buf[0]
*43 mgmt_gpio_oeb_buf[1]
*44 mgmt_gpio_oeb_buf[2]
*45 mgmt_gpio_out[0]
*46 mgmt_gpio_out[10]
*47 mgmt_gpio_out[11]
*48 mgmt_gpio_out[12]
*49 mgmt_gpio_out[13]
*50 mgmt_gpio_out[14]
*51 mgmt_gpio_out[15]
*52 mgmt_gpio_out[16]
*53 mgmt_gpio_out[17]
*54 mgmt_gpio_out[1]
*55 mgmt_gpio_out[2]
*56 mgmt_gpio_out[3]
*57 mgmt_gpio_out[4]
*58 mgmt_gpio_out[5]
*59 mgmt_gpio_out[6]
*60 mgmt_gpio_out[7]
*61 mgmt_gpio_out[8]
*62 mgmt_gpio_out[9]
*63 mgmt_gpio_out_buf[0]
*64 mgmt_gpio_out_buf[10]
*65 mgmt_gpio_out_buf[11]
*66 mgmt_gpio_out_buf[12]
*67 mgmt_gpio_out_buf[13]
*68 mgmt_gpio_out_buf[14]
*69 mgmt_gpio_out_buf[15]
*70 mgmt_gpio_out_buf[16]
*71 mgmt_gpio_out_buf[17]
*72 mgmt_gpio_out_buf[1]
*73 mgmt_gpio_out_buf[2]
*74 mgmt_gpio_out_buf[3]
*75 mgmt_gpio_out_buf[4]
*76 mgmt_gpio_out_buf[5]
*77 mgmt_gpio_out_buf[6]
*78 mgmt_gpio_out_buf[7]
*79 mgmt_gpio_out_buf[8]
*80 mgmt_gpio_out_buf[9]

*PORTS

*81 I
*82 I
*83 I
*84 I
*85 I
*86 I
*87 I
*88 I
*89 I
*90 I
*91 I
*92 I
*93 I
*94 I
*95 I
*96 I
*97 I
*98 I
*99 O
*100 O
*101 O
*102 O
*103 O
*104 O
*105 O
*106 O
*107 O
*108 O
*109 O
*110 O
*111 O
*112 O
*113 O
*114 O
*115 O
*116 O
*117 I
*118 I
*119 I
*120 O
*121 O
*122 O
*123 I
*124 I
*125 I
*126 I
*127 I
*128 I
*129 I
*130 I
*131 I
*132 I
*133 I
*134 I
*135 I
*136 I
*137 I
*138 I
*139 I
*140 I
*141 O
*142 O
*143 O
*144 O
*145 O
*146 O
*147 O
*148 O
*149 O
*150 O
*151 O
*152 O
*153 O
*154 O
*155 O
*156 O
*157 O
*158 O

*D_NET *3 6.51437

*CONN
*P *81 I *C 3.0800 4.0000
*I *172:I I *C 18.7600 41.1600
*I *211:I I *C 13.7200 41.1600

*CAP
1 *81 *90 0.563595
2 *3:3 *12:3 0.00858408
3 *81 *13:3 0.0137387
4 *3:3 *14:3 0.264904
5 *3:3 *93 0.016025
6 *81 *19:3 0.0376351
7 *81 *21:3 0.0518154
8 *3:3 *21:3 0.0691425
9 *81 *30:2 0.066705
10 *3:3 *34:2 0.110622
11 *3:3 *36:2 0.106413
12 *3:3 *37:2 0.0157852
13 *81 *118 0.139895
14 *81 2.53488
15 *172:I 0.0173835
16 *211:I 0.0317524
17 *3:3 2.4655
18 *3:5 0.0

*RES
1 *81 *3:3 19.9254
2 *172:I *3:3 10.6505
3 *172:I *3:5 0.001
4 *211:I *3:3 9.0
5 *211:I *3:4 0.001
*END

*D_NET *4 3.10175

*CONN
*P *82 I *C 25.4800 4.0000
*I *183:I I *C 38.3600 9.2400
*I *222:I I *C 33.8800 9.8000

*CAP
1 *82 *83 0.221396
2 *4:3 *85 0.018965
3 *4:3 *7:3 0.303805
4 *4:3 *86 0.138886
5 *4:3 *87 0.0170321
6 *4:3 *10:3 0.126877
7 *82 *20:3 0.227024
8 *82 *22:2 0.0345679
9 *4:3 *117 0.188303
10 *82 1.14294
11 *183:I 0.0289264
12 *222:I 0.0713916
13 *4:3 0.581629
14 *4:5 0.0

*RES
1 *82 *4:3 8.94536
2 *183:I *4:3 10.4705
3 *183:I *4:5 0.001
4 *222:I *4:3 9.24107
5 *222:I *4:4 0.001
*END

*D_NET *5 3.62502

*CONN
*P *83 I *C 27.7200 4.0000
*I *184:I I *C 38.3600 17.0800
*I *223:I I *C 33.8800 17.6400

*CAP
1 *83 *82 0.221396
2 *83 *84 0.306533
3 *5:3 *6:3 0.182775
4 *5:3 *86 0.170189
5 *5:3 *9:5 0.00124112
6 *5:3 *10:3 0.115755
7 *83 *20:3 0.00672789
8 *83 *22:2 0.102336
9 *83 *23:2 0.0357525
10 *5:3 *25:2 0.0209324
11 *83 1.66471
12 *184:I 0.0203737
13 *223:I 0.0617662
14 *5:3 0.714531
15 *5:5 0.0

*RES
1 *83 *5:3 10.7454
2 *184:I *5:3 10.4705
3 *184:I *5:5 0.001
4 *223:I *5:3 9.24107
5 *223:I *5:4 0.001
*END

*D_NET *6 4.88595

*CONN
*P *84 I *C 29.9600 4.0000
*I *185:I I *C 42.8400 21.0000
*I *224:I I *C 35.0000 21.5600

*CAP
1 *84 *83 0.306533
2 *6:3 *5:3 0.182775
3 *84 *85 0.229955
4 *84 *86 0.370997
5 *84 *9:5 0.461309
6 *84 *10:3 0.00165777
7 *6:3 *89 0.0169178
8 *84 *23:2 0.0151825
9 *84 *24:2 0.0129989
10 *84 *25:2 0.0442219
11 *6:3 *25:2 0.00831989
12 *6:3 *63:2 0.0172649
13 *84 2.03614
14 *185:I 0.293484
15 *6:3 0.888191
16 *6:5 0.0

*RES
1 *84 *6:3 16.2064
2 *185:I *6:5 0.001
3 *185:I *6:3 16.0811
4 *224:I *6:4 0.001
5 *224:I *6:3 4.71054
*END

*D_NET *7 3.71848

*CONN
*P *85 I *C 32.2000 4.0000
*I *186:I I *C 42.2800 10.3600
*I *225:I I *C 37.2400 13.7200

*CAP
1 *85 *4:3 0.018965
2 *7:3 *4:3 0.303805
3 *85 *84 0.229955
4 *85 *86 0.225503
5 *85 *87 0.200454
6 *85 *9:5 0.0507535
7 *85 *10:3 0.0675335
8 *7:3 *89 0.067262
9 *7:3 *117 1.10374
10 *7:3 *63:2 0.016416
11 *85 1.09178
12 *186:I 0.0261643
13 *225:I 0.0856542
14 *7:3 0.230488
15 *7:5 0.0

*RES
1 *85 *7:3 8.22536
2 *186:I *7:3 10.6505
3 *186:I *7:5 0.001
4 *225:I *7:3 10.1411
5 *225:I *7:4 0.001
*END

*D_NET *8 10.2153

*CONN
*P *86 I *C 34.4400 4.0000
*I *187:I I *C 23.8000 52.9200
*I *226:I I *C 28.8400 52.9200

*CAP
1 *86 *4:3 0.138886
2 *86 *5:3 0.170189
3 *86 *84 0.370997
4 *86 *85 0.225503
5 *86 *87 0.241037
6 *86 *9:5 1.02279
7 *8:3 *9:5 0.0503715
8 *8:3 *22:2 0.0204914
9 *8:3 *23:2 0.0336833
10 *8:3 *24:2 0.0172125
11 *86 *25:2 0.988856
12 *8:3 *103 0.0345428
13 *8:3 *25:2 1.20335
14 *8:3 *26:3 0.139136
15 *8:3 *105 0.0416575
16 *8:3 *106 0.0276428
17 *8:3 *37:2 0.000599103
18 *8:3 *38:2 0.107924
19 *8:3 *41:3 1.17538
20 *86 2.12467
21 *187:I 0.326407
22 *226:I 0.0391317
23 *8:3 1.71488
24 *8:5 0.0

*RES
1 *86 *8:3 21.9054
2 *187:I *8:3 10.6505
3 *187:I *8:4 0.001
4 *226:I *8:3 9.0
5 *226:I *8:5 0.001
*END

*D_NET *9 5.96271

*CONN
*P *87 I *C 36.6800 4.0000
*I *188:I I *C 35.5600 40.0400
*I *227:I I *C 36.6800 45.0800

*CAP
1 *87 *4:3 0.0170321
2 *9:5 *5:3 0.00124112
3 *9:5 *84 0.461309
4 *87 *85 0.200454
5 *9:5 *85 0.0507535
6 *87 *86 0.241037
7 *9:5 *86 1.02279
8 *9:5 *8:3 0.0503715
9 *87 *10:3 0.229102
10 *9:5 *10:3 0.263687
11 *9:5 *25:2 0.0532247
12 *9:5 *105 0.0342503
13 *9:5 *117 0.00801636
14 *87 1.20434
15 *227:I 0.16378
16 *9:3 0.0826584
17 *9:5 1.87866
18 *9:6 0.0

*RES
1 *87 *9:5 11.9443
2 *188:I *9:5 4.5
3 *188:I *9:4 0.001
4 *188:I *9:3 0.001
5 *227:I *9:5 6.51054
6 *227:I *9:6 0.001
*END

*D_NET *10 6.31399

*CONN
*P *88 I *C 38.9200 4.0000
*I *189:I I *C 42.8400 36.6800
*I *228:I I *C 38.9200 49.0000

*CAP
1 *10:3 *4:3 0.126877
2 *10:3 *5:3 0.115755
3 *10:3 *84 0.00165777
4 *10:3 *85 0.0675335
5 *10:3 *87 0.229102
6 *10:3 *9:5 0.263687
7 *10:3 *89 0.509742
8 *10:3 *105 0.0537038
9 *10:3 *106 0.0382903
10 *10:3 *29:2 0.269217
11 *10:3 *63:2 0.043483
12 *88 1.90509
13 *189:I 0.170559
14 *10:3 2.5193
15 *10:5 0.0

*RES
1 *88 *10:3 10.5268
2 *189:I *10:3 14.8211
3 *189:I *10:5 0.001
4 *228:I *10:4 0.001
5 *228:I *10:3 8.46804
*END

*D_NET *11 5.97067

*CONN
*P *89 I *C 41.1600 4.0000
*I *190:I I *C 51.2400 32.2000
*I *229:I I *C 46.2000 33.3200

*CAP
1 *89 *6:3 0.0169178
2 *89 *7:3 0.067262
3 *89 *10:3 0.509742
4 *89 *29:2 0.00622172
5 *89 *39:6 0.0584547
6 *11:4 *118 0.0442207
7 *11:4 *40:3 0.121697
8 *11:4 *135 0.104022
9 *89 *63:2 0.28412
10 *89 *72:2 0.45711
11 *89 *73:2 0.0723618
12 *89 1.73636
13 *190:I 0.267544
14 *11:3 0.0786645
15 *11:4 2.14597
16 *11:6 0.0

*RES
1 *89 *11:4 19.8064
2 *190:I *11:6 0.001
3 *190:I *11:3 0.001
4 *190:I *11:4 15.1811
5 *229:I *11:5 0.001
6 *229:I *11:4 4.89054
*END

*D_NET *12 6.254

*CONN
*P *90 I *C 5.3200 4.0000
*I *173:I I *C 18.7600 36.6800
*I *212:I I *C 13.7200 37.2400

*CAP
1 *90 *81 0.563595
2 *12:3 *3:3 0.00858408
3 *90 *91 0.389077
4 *90 *13:3 0.280495
5 *12:3 *93 0.112624
6 *90 *19:3 0.0439136
7 *90 *30:2 0.0132818
8 *12:3 *34:2 0.326272
9 *12:3 *35:2 0.00502125
10 *12:3 *36:2 0.118847
11 *12:3 *37:2 0.00725783
12 *90 *118 0.134306
13 *90 1.84809
14 *173:I 0.388314
15 *12:3 2.01432
16 *12:5 0.0

*RES
1 *90 *12:3 22.3264
2 *173:I *12:3 15.1811
3 *173:I *12:5 0.001
4 *212:I *12:4 0.001
5 *212:I *12:3 4.71054
*END

*D_NET *13 8.74818

*CONN
*P *91 I *C 7.5600 4.0000
*I *174:I I *C 18.7600 52.3600
*I *213:I I *C 13.7200 52.9200

*CAP
1 *13:3 *81 0.0137387
2 *91 *90 0.389077
3 *13:3 *90 0.280495
4 *91 *92 0.38031
5 *13:3 *92 0.218144
6 *13:3 *15:3 0.00950146
7 *91 *19:3 0.0530084
8 *13:3 *21:3 0.0024406
9 *13:3 *30:2 0.346588
10 *13:3 *31:3 0.0702427
11 *13:3 *32:3 0.0877838
12 *13:3 *33:2 0.0476909
13 *13:3 *34:2 0.0530084
14 *13:3 *35:2 0.0441632
15 *13:3 *36:2 0.174219
16 *13:3 *37:2 0.0429341
17 *13:3 *119 1.34157
18 *91 3.41467
19 *174:I 0.381534
20 *213:I 0.0325001
21 *13:3 1.36455
22 *13:5 0.0

*RES
1 *91 *13:3 22.4454
2 *174:I *13:3 10.755
3 *174:I *13:5 0.001
4 *213:I *13:3 9.0
5 *213:I *13:4 0.001
*END

*D_NET *14 7.11058

*CONN
*P *92 I *C 9.8000 4.0000
*I *175:I I *C 19.8800 44.5200
*I *214:I I *C 14.8400 45.0800

*CAP
1 *14:3 *3:3 0.264904
2 *92 *91 0.38031
3 *92 *13:3 0.218144
4 *92 *93 0.389726
5 *14:3 *15:3 0.0409546
6 *92 *19:3 0.0181301
7 *92 *32:3 0.0134872
8 *92 *34:2 0.317839
9 *92 *35:2 0.340888
10 *92 *36:2 0.00321337
11 *14:3 *36:2 0.00799979
12 *14:3 *37:2 0.13479
13 *92 *221:Z 0.00419497
14 *14:3 *38:2 0.000699668
15 *92 2.73368
16 *175:I 0.229855
17 *14:3 2.01176
18 *14:5 0.0

*RES
1 *92 *14:3 23.7664
2 *175:I *14:3 15.1811
3 *175:I *14:5 0.001
4 *214:I *14:4 0.001
5 *214:I *14:3 4.71054
*END

*D_NET *15 8.56045

*CONN
*P *93 I *C 12.0400 4.0000
*I *176:I I *C 22.6800 48.4400
*I *215:I I *C 17.0800 49.0000

*CAP
1 *93 *3:3 0.016025
2 *93 *12:3 0.112624
3 *15:3 *13:3 0.00950146
4 *93 *92 0.389726
5 *15:3 *14:3 0.0409546
6 *93 *94 0.273202
7 *93 *19:3 0.00196369
8 *93 *32:3 0.0202177
9 *93 *33:2 0.0316706
10 *93 *34:2 0.391779
11 *93 *35:2 0.0530546
12 *15:3 *35:2 0.00351872
13 *93 *36:2 0.054827
14 *15:3 *37:2 0.00277383
15 *93 *221:Z 1.57056
16 *15:3 *38:2 0.117659
17 *93 *117 0.00804798
18 *93 1.6798
19 *176:I 0.0287439
20 *215:I 0.0364051
21 *15:3 3.7174
22 *15:5 0.0

*RES
1 *93 *15:3 20.2854
2 *176:I *15:3 10.8305
3 *176:I *15:5 0.001
4 *215:I *15:3 9.24107
5 *215:I *15:4 0.001
*END

*D_NET *16 4.68528

*CONN
*P *94 I *C 14.2800 4.0000
*I *177:I I *C 22.6800 24.3600
*I *216:I I *C 19.8800 21.5600

*CAP
1 *94 *93 0.273202
2 *94 *17:3 0.235922
3 *16:5 *17:3 0.159169
4 *16:5 *96 0.250806
5 *16:5 *20:3 0.00364905
6 *94 *35:2 0.0166033
7 *16:5 *35:2 0.0515545
8 *94 *219:Z 0.132355
9 *16:5 *219:Z 0.0547464
10 *94 *221:Z 0.190416
11 *16:5 *221:Z 0.00989624
12 *16:5 *118 0.00125314
13 *94 1.73399
14 *177:I 0.254772
15 *16:3 0.0815856
16 *16:5 1.23536
17 *16:6 0.0

*RES
1 *94 *16:5 16.5664
2 *177:I *16:6 0.001
3 *177:I *16:3 0.001
4 *177:I *16:5 15.3916
5 *216:I *16:5 4.5
6 *216:I *16:4 0.001
*END

*D_NET *17 4.01978

*CONN
*P *95 I *C 16.5200 4.0000
*I *178:I I *C 19.3200 24.3600
*I *217:I I *C 17.0800 17.6400

*CAP
1 *17:3 *94 0.235922
2 *17:3 *16:5 0.159169
3 *17:3 *96 0.568708
4 *17:3 *35:2 0.0305851
5 *17:3 *219:Z 1.09769
6 *95 0.218624
7 *178:I 0.126903
8 *17:3 1.50654
9 *17:4 0.0756426
10 *17:6 0.0

*RES
1 *95 *17:3 4.38429
2 *178:I *17:3 16.5327
3 *178:I *17:6 0.001
4 *178:I *17:4 0.001
5 *217:I *17:3 4.5
6 *217:I *17:5 0.001
*END

*D_NET *18 5.2223

*CONN
*P *96 I *C 18.7600 4.0000
*I *179:I I *C 28.8400 29.4000
*I *218:I I *C 23.8000 29.4000

*CAP
1 *96 *16:5 0.250806
2 *96 *17:3 0.568708
3 *96 *97 0.196084
4 *96 *19:3 0.0465754
5 *96 *22:2 0.0135815
6 *18:3 *23:2 0.0504385
7 *18:3 *24:2 0.0172649
8 *96 *35:2 0.025226
9 *96 *36:2 0.202412
10 *96 *219:Z 0.0199637
11 *96 *37:2 0.071096
12 *96 *38:2 0.0535712
13 *18:3 *221:Z 0.0330487
14 *18:3 *118 0.427851
15 *96 1.0606
16 *179:I 0.0230081
17 *218:I 0.0362687
18 *18:3 2.1258
19 *18:5 0.0

*RES
1 *96 *18:3 14.3454
2 *179:I *18:3 10.6505
3 *179:I *18:5 0.001
4 *218:I *18:3 9.0
5 *218:I *18:4 0.001
*END

*D_NET *19 3.33372

*CONN
*P *97 I *C 21.0000 4.0000
*I *180:I I *C 4.2000 9.8000
*I *219:I I *C 8.1200 9.8000

*CAP
1 *19:3 *81 0.0376351
2 *19:3 *90 0.0439136
3 *19:3 *91 0.0530084
4 *19:3 *92 0.0181301
5 *19:3 *93 0.00196369
6 *97 *96 0.196084
7 *19:3 *96 0.0465754
8 *97 *20:3 0.207099
9 *19:3 *20:3 0.0161648
10 *19:3 *117 0.695394
11 *97 0.647834
12 *180:I 0.293056
13 *219:I 0.0198928
14 *19:3 1.05697
15 *19:5 0.0

*RES
1 *97 *19:3 10.3854
2 *180:I *19:3 10.2905
3 *180:I *19:4 0.001
4 *219:I *19:3 9.0
5 *219:I *19:5 0.001
*END

*D_NET *20 3.67876

*CONN
*P *98 I *C 23.2400 4.0000
*I *182:I I *C 24.9200 24.3600
*I *221:I I *C 23.8000 13.7200

*CAP
1 *20:3 *82 0.227024
2 *20:3 *83 0.00672789
3 *20:3 *16:5 0.00364905
4 *20:3 *97 0.207099
5 *20:3 *19:3 0.0161648
6 *20:3 *22:2 1.16671
7 *20:3 *23:2 0.00940658
8 *20:3 *117 0.0196631
9 *98 0.218624
10 *182:I 0.0774573
11 *20:3 1.6456
12 *20:4 0.0806318
13 *20:6 0.0

*RES
1 *98 *20:3 3.12429
2 *182:I *20:3 8.26554
3 *182:I *20:6 0.001
4 *182:I *20:4 0.001
5 *221:I *20:3 4.5
6 *221:I *20:5 0.001
*END

*D_NET *21 2.74087

*CONN
*P *99 O *C 3.0800 61.0000
*I *211:Z O *C 4.7600 41.7200 *D gf180mcu_fd_sc_mcu7t5v0__clkbuf_8

*CAP
1 *21:3 *81 0.0518154
2 *21:3 *3:3 0.0691425
3 *21:3 *13:3 0.0024406
4 *21:3 *30:2 0.591781
5 *99 0.522566
6 *21:3 1.50312
7 *21:4 0.0

*RES
1 *99 *21:3 6.76769
2 *211:Z *21:3 4.5
3 *211:Z *21:2 0.001
4 *211:Z *21:4 0.779063
*END

*D_NET *22 6.95922

*CONN
*P *100 O *C 25.4800 61.0000
*I *222:Z O *C 25.4800 10.3600 *D gf180mcu_fd_sc_mcu7t5v0__clkbuf_8

*CAP
1 *22:2 *82 0.0345679
2 *22:2 *83 0.102336
3 *22:2 *8:3 0.0204914
4 *22:2 *96 0.0135815
5 *22:2 *20:3 1.16671
6 *100 *101 0.12779
7 *22:2 *23:2 0.680379
8 *100 *116 0.12779
9 *22:2 *38:2 0.502237
10 *100 0.218624
11 *222:Z 1.14977
12 *22:2 2.81495
13 *22:4 0.0

*RES
1 *100 *22:2 3.465
2 *222:Z *22:2 17.3427
3 *222:Z *22:3 0.001
4 *222:Z *22:4 0.464063
*END

*D_NET *23 5.15253

*CONN
*P *101 O *C 27.7200 61.0000
*I *223:Z O *C 27.7200 18.2000 *D gf180mcu_fd_sc_mcu7t5v0__clkbuf_8

*CAP
1 *23:2 *83 0.0357525
2 *23:2 *84 0.0151825
3 *23:2 *8:3 0.0336833
4 *23:2 *18:3 0.0504385
5 *23:2 *20:3 0.00940658
6 *101 *100 0.12779
7 *23:2 *22:2 0.680379
8 *101 *102 0.12779
9 *23:2 *24:2 0.60622
10 *101 0.218624
11 *223:Z 0.825825
12 *23:2 2.42144
13 *23:3 0.0

*RES
1 *101 *23:2 0.945001
2 *223:Z *23:2 17.3427
3 *223:Z *23:3 0.001
*END

*D_NET *24 5.05853

*CONN
*P *102 O *C 29.9600 61.0000
*I *224:Z O *C 29.9600 21.0000 *D gf180mcu_fd_sc_mcu7t5v0__clkbuf_8

*CAP
1 *24:2 *84 0.0129989
2 *24:2 *8:3 0.0172125
3 *24:2 *18:3 0.0172649
4 *102 *101 0.12779
5 *24:2 *23:2 0.60622
6 *102 *103 0.12779
7 *24:2 *103 0.157479
8 *24:2 *25:2 0.086109
9 *24:2 *105 0.0116236
10 *102 0.218624
11 *24:2 3.67542
12 *24:3 0.0

*RES
1 *102 *24:2 6.47358
2 *224:Z *24:2 10.9141
3 *224:Z *24:3 0.001
*END

*D_NET *25 7.62366

*CONN
*P *103 O *C 32.2000 61.0000
*I *225:Z O *C 32.7600 13.1600 *D gf180mcu_fd_sc_mcu7t5v0__clkbuf_8

*CAP
1 *25:2 *5:3 0.0209324
2 *25:2 *84 0.0442219
3 *25:2 *6:3 0.00831989
4 *25:2 *86 0.988856
5 *103 *8:3 0.0345428
6 *25:2 *8:3 1.20335
7 *25:2 *9:5 0.0532247
8 *103 *102 0.12779
9 *103 *24:2 0.157479
10 *25:2 *24:2 0.086109
11 *103 *26:3 0.275082
12 *25:2 *105 0.283458
13 *103 3.1387
14 *25:2 1.20159
15 *25:3 0.0

*RES
1 *103 *25:2 13.9372
2 *225:Z *25:3 0.001
3 *225:Z *25:2 6.33054
*END

*D_NET *26 1.45633

*CONN
*P *104 O *C 34.4400 61.0000
*I *226:Z O *C 34.4400 52.3600 *D gf180mcu_fd_sc_mcu7t5v0__clkbuf_8

*CAP
1 *26:3 *8:3 0.139136
2 *26:3 *103 0.275082
3 *26:3 *105 0.305471
4 *104 0.218624
5 *26:3 0.51802

*RES
1 *104 *26:3 2.80768
2 *226:Z *26:3 4.5
3 *226:Z *26:2 0.001
*END

*D_NET *27 3.06093

*CONN
*P *105 O *C 36.6800 61.0000
*I *227:Z O *C 32.7600 44.5200 *D gf180mcu_fd_sc_mcu7t5v0__clkbuf_8

*CAP
1 *105 *8:3 0.0416575
2 *105 *9:5 0.0342503
3 *105 *10:3 0.0537038
4 *105 *24:2 0.0116236
5 *105 *25:2 0.283458
6 *105 *26:3 0.305471
7 *105 *106 0.377222
8 *105 0.357933
9 *227:Z 0.0673031
10 *27:2 1.5283
11 *27:3 0.0

*RES
1 *105 *27:2 10.6088
2 *227:Z *27:2 9.60108
3 *227:Z *27:3 0.001
*END

*D_NET *28 2.2099

*CONN
*P *106 O *C 38.9200 61.0000
*I *228:Z O *C 35.5600 49.5600 *D gf180mcu_fd_sc_mcu7t5v0__clkbuf_8

*CAP
1 *106 *8:3 0.0276428
2 *106 *10:3 0.0382903
3 *106 *105 0.377222
4 *106 *107 0.12779
5 *106 *29:2 0.197637
6 *106 *41:3 0.0390922
7 *106 0.410752
8 *228:Z 0.034993
9 *28:2 0.956483
10 *28:3 0.0

*RES
1 *106 *28:2 9.16876
2 *228:Z *28:2 9.24107
3 *228:Z *28:3 0.001
*END

*D_NET *29 3.46388

*CONN
*P *107 O *C 41.1600 61.0000
*I *229:Z O *C 41.1600 33.8800 *D gf180mcu_fd_sc_mcu7t5v0__clkbuf_8

*CAP
1 *29:2 *10:3 0.269217
2 *29:2 *89 0.00622172
3 *107 *106 0.12779
4 *29:2 *106 0.197637
5 *107 *123 0.12779
6 *29:2 *45:3 0.25622
7 *29:2 *63:2 0.0284118
8 *107 0.218624
9 *29:2 2.23197
10 *29:3 0.0

*RES
1 *107 *29:2 2.33357
2 *229:Z *29:2 10.9141
3 *229:Z *29:3 0.001
*END

*D_NET *30 3.22301

*CONN
*P *108 O *C 5.3200 61.0000
*I *212:Z O *C 5.3200 36.6800 *D gf180mcu_fd_sc_mcu7t5v0__clkbuf_8

*CAP
1 *30:2 *81 0.066705
2 *30:2 *90 0.0132818
3 *30:2 *13:3 0.346588
4 *30:2 *21:3 0.591781
5 *30:2 *31:3 0.287253
6 *108 0.218624
7 *30:2 1.69877
8 *30:3 0.0

*RES
1 *108 *30:2 1.43357
2 *212:Z *30:2 10.9141
3 *212:Z *30:3 0.001
*END

*D_NET *31 1.31899

*CONN
*P *109 O *C 7.5600 61.0000
*I *213:Z O *C 7.5600 53.4800 *D gf180mcu_fd_sc_mcu7t5v0__clkbuf_8

*CAP
1 *31:3 *13:3 0.0702427
2 *31:3 *30:2 0.287253
3 *31:3 *32:3 0.276905
4 *109 0.218624
5 *31:3 0.465966

*RES
1 *109 *31:3 2.44768
2 *213:Z *31:3 4.5
3 *213:Z *31:2 0.001
*END

*D_NET *32 2.35024

*CONN
*P *110 O *C 9.8000 61.0000
*I *214:Z O *C 9.8000 44.5200 *D gf180mcu_fd_sc_mcu7t5v0__clkbuf_8

*CAP
1 *32:3 *13:3 0.0877838
2 *32:3 *92 0.0134872
3 *32:3 *93 0.0202177
4 *32:3 *31:3 0.276905
5 *32:3 *33:2 0.289349
6 *110 0.218624
7 *32:3 1.44387

*RES
1 *110 *32:3 5.32768
2 *214:Z *32:3 4.5
3 *214:Z *32:2 0.001
*END

*D_NET *33 1.89282

*CONN
*P *111 O *C 12.0400 61.0000
*I *215:Z O *C 12.6000 49.5600 *D gf180mcu_fd_sc_mcu7t5v0__clkbuf_8

*CAP
1 *33:2 *13:3 0.0476909
2 *33:2 *93 0.0316706
3 *33:2 *32:3 0.289349
4 *33:2 *112 0.12779
5 *33:2 *34:2 0.226037
6 *33:2 *35:2 0.00354829
7 *33:2 *119 0.0150313
8 *111 0.218624
9 *215:Z 0.107867
10 *33:2 0.825215
11 *33:3 0.0

*RES
1 *111 *33:2 2.41715
2 *215:Z *33:2 5.79054
3 *215:Z *33:3 0.001
*END

*D_NET *34 5.95512

*CONN
*P *112 O *C 14.2800 61.0000
*I *216:Z O *C 14.2800 21.0000 *D gf180mcu_fd_sc_mcu7t5v0__clkbuf_8

*CAP
1 *34:2 *3:3 0.110622
2 *34:2 *12:3 0.326272
3 *34:2 *13:3 0.0530084
4 *34:2 *92 0.317839
5 *34:2 *93 0.391779
6 *112 *33:2 0.12779
7 *34:2 *33:2 0.226037
8 *112 *113 0.12779
9 *34:2 *35:2 1.20261
10 *34:2 *36:2 0.0169471
11 *34:2 *219:Z 0.0213959
12 *34:2 *221:Z 0.256898
13 *112 0.218624
14 *34:2 2.55751
15 *34:3 0.0

*RES
1 *112 *34:2 6.47358
2 *216:Z *34:2 10.9141
3 *216:Z *34:3 0.001
*END

*D_NET *35 6.85996

*CONN
*P *113 O *C 16.5200 61.0000
*I *217:Z O *C 13.7200 18.2000 *D gf180mcu_fd_sc_mcu7t5v0__clkbuf_8

*CAP
1 *35:2 *12:3 0.00502125
2 *35:2 *13:3 0.0441632
3 *35:2 *92 0.340888
4 *35:2 *93 0.0530546
5 *35:2 *15:3 0.00351872
6 *35:2 *94 0.0166033
7 *35:2 *16:5 0.0515545
8 *35:2 *17:3 0.0305851
9 *35:2 *96 0.025226
10 *35:2 *33:2 0.00354829
11 *113 *112 0.12779
12 *35:2 *34:2 1.20261
13 *113 *114 0.12779
14 *35:2 *36:2 0.411499
15 *35:2 *219:Z 0.829808
16 *35:2 *221:Z 0.103296
17 *113 0.218624
18 *217:Z 1.06805
19 *35:2 2.19633
20 *35:3 0.0

*RES
1 *113 *35:2 2.95715
2 *217:Z *35:2 16.155
3 *217:Z *35:3 0.001
*END

*D_NET *36 4.31745

*CONN
*P *114 O *C 18.7600 61.0000
*I *218:Z O *C 18.2000 28.8400 *D gf180mcu_fd_sc_mcu7t5v0__clkbuf_8

*CAP
1 *36:2 *3:3 0.106413
2 *36:2 *12:3 0.118847
3 *36:2 *13:3 0.174219
4 *36:2 *92 0.00321337
5 *36:2 *14:3 0.00799979
6 *36:2 *93 0.054827
7 *36:2 *96 0.202412
8 *36:2 *34:2 0.0169471
9 *114 *113 0.12779
10 *36:2 *35:2 0.411499
11 *114 *115 0.12779
12 *36:2 *37:2 0.450882
13 *36:2 *119 0.00701539
14 *114 0.218624
15 *218:Z 0.339986
16 *36:2 1.94899
17 *36:3 0.0

*RES
1 *114 *36:2 2.41715
2 *218:Z *36:3 0.001
3 *218:Z *36:2 12.4505
*END

*D_NET *37 8.509

*CONN
*P *115 O *C 21.0000 61.0000
*I *219:Z O *C 15.9600 10.3600 *D gf180mcu_fd_sc_mcu7t5v0__clkbuf_8

*CAP
1 *37:2 *3:3 0.0157852
2 *37:2 *8:3 0.000599103
3 *37:2 *12:3 0.00725783
4 *37:2 *13:3 0.0429341
5 *37:2 *14:3 0.13479
6 *37:2 *15:3 0.00277383
7 *219:Z *94 0.132355
8 *219:Z *16:5 0.0547464
9 *219:Z *17:3 1.09769
10 *219:Z *96 0.0199637
11 *37:2 *96 0.071096
12 *219:Z *34:2 0.0213959
13 *219:Z *35:2 0.829808
14 *115 *114 0.12779
15 *37:2 *36:2 0.450882
16 *115 *116 0.12779
17 *219:Z *221:Z 0.114315
18 *37:2 *38:2 0.252085
19 *219:Z *118 0.0146321
20 *115 0.218624
21 *219:Z 0.836872
22 *37:2 3.93482
23 *37:3 0.0

*RES
1 *115 *37:2 1.69714
2 *219:Z *37:2 29.6727
3 *219:Z *37:3 0.001
*END

*D_NET *38 9.31704

*CONN
*P *116 O *C 23.2400 61.0000
*I *221:Z O *C 13.1600 13.1600 *D gf180mcu_fd_sc_mcu7t5v0__clkbuf_8

*CAP
1 *38:2 *8:3 0.107924
2 *221:Z *92 0.00419497
3 *38:2 *14:3 0.000699668
4 *221:Z *93 1.57056
5 *38:2 *15:3 0.117659
6 *221:Z *94 0.190416
7 *221:Z *16:5 0.00989624
8 *38:2 *96 0.0535712
9 *221:Z *18:3 0.0330487
10 *116 *100 0.12779
11 *38:2 *22:2 0.502237
12 *221:Z *34:2 0.256898
13 *221:Z *35:2 0.103296
14 *116 *115 0.12779
15 *221:Z *219:Z 0.114315
16 *38:2 *37:2 0.252085
17 *38:2 *118 1.16505
18 *116 0.218624
19 *221:Z 1.11573
20 *38:2 3.24525
21 *38:3 0.0

*RES
1 *116 *38:2 4.31358
2 *221:Z *38:2 27.9563
3 *221:Z *38:3 0.001
*END

*D_NET *39 7.26673

*CONN
*P *117 I *C 4.0000 10.9200
*I *168:I I *C 42.2800 16.5200
*I *207:I I *C 43.4000 13.7200

*CAP
1 *117 *4:3 0.188303
2 *117 *7:3 1.10374
3 *117 *9:5 0.00801636
4 *39:6 *89 0.0584547
5 *117 *93 0.00804798
6 *117 *19:3 0.695394
7 *117 *20:3 0.0196631
8 *117 *63:2 0.00283336
9 *39:6 *63:2 0.736819
10 *39:6 *150 0.00972336
11 *117 1.93403
12 *168:I 0.0237637
13 *39:3 0.110713
14 *39:6 2.36723

*RES
1 *117 *39:6 18.1254
2 *168:I *39:6 5.715
3 *168:I *39:4 0.001
4 *168:I *39:3 0.001
5 *207:I *39:6 4.5
6 *207:I *39:5 0.001
*END

*D_NET *40 10.3023

*CONN
*P *118 I *C 4.0000 32.2000
*I *169:I I *C 63.0000 26.0400
*I *208:I I *C 66.3600 29.4000

*CAP
1 *118 *81 0.139895
2 *118 *11:4 0.0442207
3 *40:3 *11:4 0.121697
4 *118 *90 0.134306
5 *118 *16:5 0.00125314
6 *118 *18:3 0.427851
7 *118 *219:Z 0.0146321
8 *118 *38:2 1.16505
9 *40:3 *46:3 0.247299
10 *40:3 *52:3 0.0247186
11 *40:3 *57:3 0.129381
12 *40:3 *58:3 0.00287496
13 *40:3 *139 0.0475679
14 *40:3 *140 0.111601
15 *40:3 *62:4 0.0222394
16 *40:3 *65:2 0.0245793
17 *40:3 *70:2 1.03099
18 *118 4.12639
19 *169:I 0.123594
20 *208:I 0.0801834
21 *40:3 2.28193
22 *40:5 0.0

*RES
1 *118 *40:3 20.9668
2 *169:I *40:3 9.78108
3 *169:I *40:4 0.001
4 *208:I *40:3 10.5091
5 *208:I *40:5 0.001
*END

*D_NET *41 9.50619

*CONN
*P *119 I *C 4.0000 53.4800
*I *171:I I *C 61.8800 53.4800
*I *210:I I *C 63.0000 49.0000

*CAP
1 *41:3 *8:3 1.17538
2 *119 *13:3 1.34157
3 *41:3 *106 0.0390922
4 *119 *33:2 0.0150313
5 *119 *36:2 0.00701539
6 *41:3 *55:3 0.0710035
7 *41:3 *135 0.0302879
8 *41:3 *138 0.0104175
9 *41:3 *139 0.544058
10 *41:3 *140 0.106808
11 *119 3.83548
12 *210:I 0.0820295
13 *41:3 2.24802
14 *41:5 0.0

*RES
1 *119 *41:3 23.1348
2 *171:I *41:3 4.5
3 *171:I *41:4 0.001
4 *210:I *41:5 0.001
5 *210:I *41:3 6.28554
*END

*D_NET *42 5.54271

*CONN
*P *120 O *C 81.0000 10.9200
*I *207:Z O *C 55.1600 13.1600 *D gf180mcu_fd_sc_mcu7t5v0__clkbuf_8

*CAP
1 *42:2 *46:3 1.20341
2 *42:2 *60:6 0.0355196
3 *42:2 *64:2 1.18704
4 *42:2 *67:2 0.00601697
5 *42:2 *148 0.00150162
6 *42:2 *154 0.278891
7 *42:2 *155 0.0796202
8 *42:2 *78:2 0.0145927
9 *120 0.659825
10 *207:Z 0.13955
11 *42:2 1.93674
12 *42:3 0.0

*RES
1 *120 *42:2 1.92214
2 *207:Z *42:2 16.1036
3 *207:Z *42:3 0.001
*END

*D_NET *43 2.03171

*CONN
*P *121 O *C 81.0000 32.2000
*I *208:Z O *C 75.3200 29.9600 *D gf180mcu_fd_sc_mcu7t5v0__clkbuf_8

*CAP
1 *43:2 *48:4 0.361044
2 *43:2 *128 0.0188286
3 *43:2 *50:5 0.027628
4 *43:2 *52:3 0.0383395
5 *43:2 *67:2 0.00040196
6 *43:2 *69:2 0.0578991
7 *43:2 *70:2 0.00629222
8 *43:2 *206:Z 0.30057
9 *121 0.661827
10 *208:Z 0.075469
11 *43:2 0.483412
12 *43:3 0.0

*RES
1 *121 *43:2 1.85625
2 *208:Z *43:2 9.78108
3 *208:Z *43:3 0.001
*END

*D_NET *44 2.42338

*CONN
*P *122 O *C 81.0000 53.4800
*I *210:Z O *C 71.9600 49.5600 *D gf180mcu_fd_sc_mcu7t5v0__clkbuf_8

*CAP
1 *44:2 *126 0.034007
2 *44:2 *49:4 0.0178107
3 *44:2 *128 0.0200641
4 *44:2 *51:3 0.000738776
5 *44:2 *67:2 0.348685
6 *122 0.677726
7 *210:Z 0.197378
8 *44:2 1.12697
9 *44:3 0.0

*RES
1 *122 *44:2 2.93625
2 *210:Z *44:2 10.3211
3 *210:Z *44:3 0.001
*END

*D_NET *45 4.35178

*CONN
*P *123 I *C 43.4000 61.0000
*I *159:I I *C 53.4800 41.1600
*I *198:I I *C 48.4400 41.1600

*CAP
1 *123 *107 0.12779
2 *45:3 *29:2 0.25622
3 *123 *132 0.12779
4 *45:3 *132 0.113111
5 *45:3 *56:3 0.00985002
6 *45:3 *135 0.00242019
7 *45:3 *58:3 0.00179597
8 *45:3 *63:2 0.239455
9 *45:3 *72:2 0.166355
10 *45:3 *73:2 0.102072
11 *45:3 *74:2 0.0376673
12 *123 1.60346
13 *159:I 0.0315707
14 *198:I 0.0191164
15 *45:3 1.51311
16 *45:5 0.0

*RES
1 *123 *45:3 12.5582
2 *159:I *45:3 10.6505
3 *159:I *45:5 0.001
4 *198:I *45:3 9.0
5 *198:I *45:4 0.001
*END

*D_NET *46 10.1894

*CONN
*P *124 I *C 65.8000 61.0000
*I *160:I I *C 77.5600 10.3600
*I *199:I I *C 58.5200 9.8000

*CAP
1 *46:3 *40:3 0.247299
2 *46:3 *42:2 1.20341
3 *124 *125 0.493725
4 *46:3 *52:3 0.445614
5 *124 *59:4 0.00214878
6 *46:3 *59:4 0.0942058
7 *46:3 *60:6 0.0612474
8 *124 *140 0.777599
9 *46:3 *140 0.109963
10 *46:3 *142 0.0256681
11 *46:3 *64:2 0.0631294
12 *124 *65:2 0.0738269
13 *46:3 *65:2 0.221247
14 *46:3 *147 0.222267
15 *46:3 *148 0.0693012
16 *46:3 *155 0.0904055
17 *46:3 *157 0.0493428
18 *46:3 *80:2 0.165655
19 *124 2.81048
20 *160:I 0.495127
21 *199:I 0.876159
22 *46:3 1.59163
23 *46:5 0.0

*RES
1 *124 *46:3 15.5572
2 *160:I *46:5 0.001
3 *160:I *46:3 18.1222
4 *199:I *46:4 0.001
5 *199:I *46:3 16.8927
*END

*D_NET *47 4.89278

*CONN
*P *125 I *C 68.0400 61.0000
*I *161:I I *C 77.5600 38.3600
*I *200:I I *C 72.5200 37.2400

*CAP
1 *125 *124 0.493725
2 *125 *126 0.44492
3 *125 *128 0.00103228
4 *47:4 *130 0.0326094
5 *125 *65:2 0.0100427
6 *125 *67:2 0.119429
7 *47:4 *69:2 0.141182
8 *125 *206:Z 0.0394377
9 *125 2.00872
10 *161:I 0.0537733