*SPEF "IEEE 1481-1999"
*DESIGN "mprj_io_buffer"
*DATE "Sun Dec  4 06:09:20 2022"
*VENDOR "Synopsys Inc."
*PROGRAM "StarRC"
*VERSION "T-2022.03-SP3"
*DESIGN_FLOW "PIN_CAP NONE" "NAME_SCOPE LOCAL"
*DIVIDER /
*DELIMITER :
*BUS_DELIMITER []
*T_UNIT 1.0 NS
*C_UNIT 1.0 FF
*R_UNIT 1.0 OHM
*L_UNIT 1.0 HENRY

// COMMENTS

// CORNER_NAME 
// OPERATING_TEMPERATURE -40
// GLOBAL_TEMPERATURE 25
// TCAD_GRD_FILE /home/passant/caravel-gf180mcu/scripts/gf180-tech/gf180mcu_1p5m_1tm_9k_sp_smim_OPTB_bst.nxtgrd
//   TCAD_TIME_STAMP Tue Dec 26 17:55:23 2017
//   TCADGRD_VERSION 75
// galaxy_comments_begin
//   local_nodeid
// galaxy_comments_end

*NAME_MAP
*81 mgmt_gpio_in[0]
*82 mgmt_gpio_in[10]
*83 mgmt_gpio_in[11]
*84 mgmt_gpio_in[12]
*85 mgmt_gpio_in[13]
*86 mgmt_gpio_in[14]
*87 mgmt_gpio_in[15]
*88 mgmt_gpio_in[16]
*89 mgmt_gpio_in[17]
*90 mgmt_gpio_in[1]
*91 mgmt_gpio_in[2]
*92 mgmt_gpio_in[3]
*93 mgmt_gpio_in[4]
*94 mgmt_gpio_in[5]
*95 mgmt_gpio_in[6]
*96 mgmt_gpio_in[7]
*97 mgmt_gpio_in[8]
*98 mgmt_gpio_in[9]
*99 mgmt_gpio_in_buf[0]
*100 mgmt_gpio_in_buf[10]
*101 mgmt_gpio_in_buf[11]
*102 mgmt_gpio_in_buf[12]
*103 mgmt_gpio_in_buf[13]
*104 mgmt_gpio_in_buf[14]
*105 mgmt_gpio_in_buf[15]
*106 mgmt_gpio_in_buf[16]
*107 mgmt_gpio_in_buf[17]
*108 mgmt_gpio_in_buf[1]
*109 mgmt_gpio_in_buf[2]
*110 mgmt_gpio_in_buf[3]
*111 mgmt_gpio_in_buf[4]
*112 mgmt_gpio_in_buf[5]
*113 mgmt_gpio_in_buf[6]
*114 mgmt_gpio_in_buf[7]
*115 mgmt_gpio_in_buf[8]
*116 mgmt_gpio_in_buf[9]
*117 mgmt_gpio_oeb[0]
*118 mgmt_gpio_oeb[1]
*119 mgmt_gpio_oeb[2]
*120 mgmt_gpio_oeb_buf[0]
*121 mgmt_gpio_oeb_buf[1]
*122 mgmt_gpio_oeb_buf[2]
*123 mgmt_gpio_out[0]
*124 mgmt_gpio_out[10]
*125 mgmt_gpio_out[11]
*126 mgmt_gpio_out[12]
*127 mgmt_gpio_out[13]
*128 mgmt_gpio_out[14]
*129 mgmt_gpio_out[15]
*130 mgmt_gpio_out[16]
*131 mgmt_gpio_out[17]
*132 mgmt_gpio_out[1]
*133 mgmt_gpio_out[2]
*134 mgmt_gpio_out[3]
*135 mgmt_gpio_out[4]
*136 mgmt_gpio_out[5]
*137 mgmt_gpio_out[6]
*138 mgmt_gpio_out[7]
*139 mgmt_gpio_out[8]
*140 mgmt_gpio_out[9]
*141 mgmt_gpio_out_buf[0]
*142 mgmt_gpio_out_buf[10]
*143 mgmt_gpio_out_buf[11]
*144 mgmt_gpio_out_buf[12]
*145 mgmt_gpio_out_buf[13]
*146 mgmt_gpio_out_buf[14]
*147 mgmt_gpio_out_buf[15]
*148 mgmt_gpio_out_buf[16]
*149 mgmt_gpio_out_buf[17]
*150 mgmt_gpio_out_buf[1]
*151 mgmt_gpio_out_buf[2]
*152 mgmt_gpio_out_buf[3]
*153 mgmt_gpio_out_buf[4]
*154 mgmt_gpio_out_buf[5]
*155 mgmt_gpio_out_buf[6]
*156 mgmt_gpio_out_buf[7]
*157 mgmt_gpio_out_buf[8]
*158 mgmt_gpio_out_buf[9]
*159 ANTENNA_BUF\[0\]_I
*160 ANTENNA_BUF\[10\]_I
*161 ANTENNA_BUF\[11\]_I
*162 ANTENNA_BUF\[12\]_I
*163 ANTENNA_BUF\[13\]_I
*164 ANTENNA_BUF\[14\]_I
*165 ANTENNA_BUF\[15\]_I
*166 ANTENNA_BUF\[16\]_I
*167 ANTENNA_BUF\[17\]_I
*168 ANTENNA_BUF\[18\]_I
*169 ANTENNA_BUF\[19\]_I
*170 ANTENNA_BUF\[1\]_I
*171 ANTENNA_BUF\[20\]_I
*172 ANTENNA_BUF\[21\]_I
*173 ANTENNA_BUF\[22\]_I
*174 ANTENNA_BUF\[23\]_I
*175 ANTENNA_BUF\[24\]_I
*176 ANTENNA_BUF\[25\]_I
*177 ANTENNA_BUF\[26\]_I
*178 ANTENNA_BUF\[27\]_I
*179 ANTENNA_BUF\[28\]_I
*180 ANTENNA_BUF\[29\]_I
*181 ANTENNA_BUF\[2\]_I
*182 ANTENNA_BUF\[30\]_I
*183 ANTENNA_BUF\[31\]_I
*184 ANTENNA_BUF\[32\]_I
*185 ANTENNA_BUF\[33\]_I
*186 ANTENNA_BUF\[34\]_I
*187 ANTENNA_BUF\[35\]_I
*188 ANTENNA_BUF\[36\]_I
*189 ANTENNA_BUF\[37\]_I
*190 ANTENNA_BUF\[38\]_I
*191 ANTENNA_BUF\[3\]_I
*192 ANTENNA_BUF\[4\]_I
*193 ANTENNA_BUF\[5\]_I
*194 ANTENNA_BUF\[6\]_I
*195 ANTENNA_BUF\[7\]_I
*196 ANTENNA_BUF\[8\]_I
*197 ANTENNA_BUF\[9\]_I
*198 BUF[0]
*199 BUF[10]
*200 BUF[11]
*201 BUF[12]
*202 BUF[13]
*203 BUF[14]
*204 BUF[15]
*205 BUF[16]
*206 BUF[17]
*207 BUF[18]
*208 BUF[19]
*209 BUF[1]
*210 BUF[20]
*211 BUF[21]
*212 BUF[22]
*213 BUF[23]
*214 BUF[24]
*215 BUF[25]
*216 BUF[26]
*217 BUF[27]
*218 BUF[28]
*219 BUF[29]
*220 BUF[2]
*221 BUF[30]
*222 BUF[31]
*223 BUF[32]
*224 BUF[33]
*225 BUF[34]
*226 BUF[35]
*227 BUF[36]
*228 BUF[37]
*229 BUF[38]
*230 BUF[3]
*231 BUF[4]
*232 BUF[5]
*233 BUF[6]
*234 BUF[7]
*235 BUF[8]
*236 BUF[9]
*3 mgmt_gpio_in[0]
*4 mgmt_gpio_in[10]
*5 mgmt_gpio_in[11]
*6 mgmt_gpio_in[12]
*7 mgmt_gpio_in[13]
*8 mgmt_gpio_in[14]
*9 mgmt_gpio_in[15]
*10 mgmt_gpio_in[16]
*11 mgmt_gpio_in[17]
*12 mgmt_gpio_in[1]
*13 mgmt_gpio_in[2]
*14 mgmt_gpio_in[3]
*15 mgmt_gpio_in[4]
*16 mgmt_gpio_in[5]
*17 mgmt_gpio_in[6]
*18 mgmt_gpio_in[7]
*19 mgmt_gpio_in[8]
*20 mgmt_gpio_in[9]
*21 mgmt_gpio_in_buf[0]
*22 mgmt_gpio_in_buf[10]
*23 mgmt_gpio_in_buf[11]
*24 mgmt_gpio_in_buf[12]
*25 mgmt_gpio_in_buf[13]
*26 mgmt_gpio_in_buf[14]
*27 mgmt_gpio_in_buf[15]
*28 mgmt_gpio_in_buf[16]
*29 mgmt_gpio_in_buf[17]
*30 mgmt_gpio_in_buf[1]
*31 mgmt_gpio_in_buf[2]
*32 mgmt_gpio_in_buf[3]
*33 mgmt_gpio_in_buf[4]
*34 mgmt_gpio_in_buf[5]
*35 mgmt_gpio_in_buf[6]
*36 mgmt_gpio_in_buf[7]
*37 mgmt_gpio_in_buf[8]
*38 mgmt_gpio_in_buf[9]
*39 mgmt_gpio_oeb[0]
*40 mgmt_gpio_oeb[1]
*41 mgmt_gpio_oeb[2]
*42 mgmt_gpio_oeb_buf[0]
*43 mgmt_gpio_oeb_buf[1]
*44 mgmt_gpio_oeb_buf[2]
*45 mgmt_gpio_out[0]
*46 mgmt_gpio_out[10]
*47 mgmt_gpio_out[11]
*48 mgmt_gpio_out[12]
*49 mgmt_gpio_out[13]
*50 mgmt_gpio_out[14]
*51 mgmt_gpio_out[15]
*52 mgmt_gpio_out[16]
*53 mgmt_gpio_out[17]
*54 mgmt_gpio_out[1]
*55 mgmt_gpio_out[2]
*56 mgmt_gpio_out[3]
*57 mgmt_gpio_out[4]
*58 mgmt_gpio_out[5]
*59 mgmt_gpio_out[6]
*60 mgmt_gpio_out[7]
*61 mgmt_gpio_out[8]
*62 mgmt_gpio_out[9]
*63 mgmt_gpio_out_buf[0]
*64 mgmt_gpio_out_buf[10]
*65 mgmt_gpio_out_buf[11]
*66 mgmt_gpio_out_buf[12]
*67 mgmt_gpio_out_buf[13]
*68 mgmt_gpio_out_buf[14]
*69 mgmt_gpio_out_buf[15]
*70 mgmt_gpio_out_buf[16]
*71 mgmt_gpio_out_buf[17]
*72 mgmt_gpio_out_buf[1]
*73 mgmt_gpio_out_buf[2]
*74 mgmt_gpio_out_buf[3]
*75 mgmt_gpio_out_buf[4]
*76 mgmt_gpio_out_buf[5]
*77 mgmt_gpio_out_buf[6]
*78 mgmt_gpio_out_buf[7]
*79 mgmt_gpio_out_buf[8]
*80 mgmt_gpio_out_buf[9]

*PORTS

*81 I
*82 I
*83 I
*84 I
*85 I
*86 I
*87 I
*88 I
*89 I
*90 I
*91 I
*92 I
*93 I
*94 I
*95 I
*96 I
*97 I
*98 I
*99 O
*100 O
*101 O
*102 O
*103 O
*104 O
*105 O
*106 O
*107 O
*108 O
*109 O
*110 O
*111 O
*112 O
*113 O
*114 O
*115 O
*116 O
*117 I
*118 I
*119 I
*120 O
*121 O
*122 O
*123 I
*124 I
*125 I
*126 I
*127 I
*128 I
*129 I
*130 I
*131 I
*132 I
*133 I
*134 I
*135 I
*136 I
*137 I
*138 I
*139 I
*140 I
*141 O
*142 O
*143 O
*144 O
*145 O
*146 O
*147 O
*148 O
*149 O
*150 O
*151 O
*152 O
*153 O
*154 O
*155 O
*156 O
*157 O
*158 O

*D_NET *3 5.96377

*CONN
*P *81 I *C 3.0800 4.0000
*I *172:I I *C 18.7600 41.1600
*I *211:I I *C 13.7200 41.1600

*CAP
1 *81 *90 0.549354
2 *3:3 *12:3 0.00879446
3 *81 *91 0.0136438
4 *3:3 *14:3 0.249096
5 *3:3 *93 0.015744
6 *81 *19:3 0.0364775
7 *81 *21:3 0.0483383
8 *3:3 *21:3 0.0613122
9 *81 *30:2 0.0653558
10 *3:3 *34:2 0.0949588
11 *3:3 *36:2 0.0944555
12 *3:3 *37:2 0.016074
13 *81 *118 0.12177
14 *81 2.34484
15 *172:I 0.0170336
16 *211:I 0.0299499
17 *3:3 2.19657
18 *3:5 0.0

*RES
1 *81 *3:3 14.889
2 *172:I *3:3 9.60777
3 *172:I *3:5 0.001
4 *211:I *3:3 8.46765
5 *211:I *3:4 0.001
*END

*D_NET *4 2.86854

*CONN
*P *82 I *C 25.4800 4.0000
*I *183:I I *C 38.3600 9.2400
*I *222:I I *C 33.8800 9.8000

*CAP
1 *82 *83 0.212806
2 *4:3 *85 0.0198718
3 *4:3 *7:3 0.284715
4 *4:3 *86 0.119265
5 *4:3 *87 0.0172927
6 *4:3 *10:3 0.112638
7 *82 *20:3 0.218415
8 *82 *22:2 0.033294
9 *4:3 *117 0.182758
10 *82 0.972127
11 *183:I 0.0271198
12 *222:I 0.0647533
13 *4:3 0.603487
14 *4:5 0.0

*RES
1 *82 *4:3 7.30448
2 *183:I *4:3 9.48343
3 *183:I *4:5 0.001
4 *222:I *4:3 8.63417
5 *222:I *4:4 0.001
*END

*D_NET *5 3.32867

*CONN
*P *83 I *C 27.7200 4.0000
*I *184:I I *C 38.3600 17.0800
*I *223:I I *C 33.8800 17.6400

*CAP
1 *83 *82 0.212806
2 *83 *84 0.299658
3 *5:3 *6:3 0.17617
4 *5:3 *86 0.145982
5 *5:3 *9:5 0.00147863
6 *5:3 *10:3 0.102749
7 *83 *20:3 0.00690183
8 *83 *22:2 0.100767
9 *83 *23:2 0.0343578
10 *5:3 *25:2 0.0203562
11 *83 1.46294
12 *184:I 0.0199253
13 *223:I 0.0566728
14 *5:3 0.687916
15 *5:5 0.0

*RES
1 *83 *5:3 8.54784
2 *184:I *5:3 9.48343
3 *184:I *5:5 0.001
4 *223:I *5:3 8.63417
5 *223:I *5:4 0.001
*END

*D_NET *6 4.44347

*CONN
*P *84 I *C 29.9600 4.0000
*I *185:I I *C 42.8400 21.0000
*I *224:I I *C 35.0000 21.5600

*CAP
1 *84 *83 0.299658
2 *6:3 *5:3 0.17617
3 *84 *85 0.222968
4 *84 *86 0.32146
5 *84 *9:5 0.398594
6 *84 *10:3 0.00170511
7 *6:3 *89 0.0178072
8 *84 *23:2 0.0149375
9 *84 *24:2 0.0131784
10 *84 *25:2 0.0475869
11 *6:3 *25:2 0.00673833
12 *6:3 *63:2 0.016816
13 *84 1.82777
14 *185:I 0.284134
15 *6:3 0.793941
16 *6:5 0.0

*RES
1 *84 *6:3 13.4455
2 *185:I *6:5 0.001
3 *185:I *6:3 14.4844
4 *224:I *6:4 0.001
5 *224:I *6:3 4.37925
*END

*D_NET *7 3.38425

*CONN
*P *85 I *C 32.2000 4.0000
*I *186:I I *C 42.2800 10.3600
*I *225:I I *C 37.2400 13.7200

*CAP
1 *85 *4:3 0.0198718
2 *7:3 *4:3 0.284715
3 *85 *84 0.222968
4 *85 *86 0.217283
5 *85 *87 0.176037
6 *85 *9:5 0.0488552
7 *85 *10:3 0.0661158
8 *7:3 *89 0.0640836
9 *7:3 *117 0.954958
10 *7:3 *63:2 0.0161782
11 *85 0.932345
12 *186:I 0.0251287
13 *225:I 0.0798849
14 *7:3 0.275825
15 *7:5 0.0

*RES
1 *85 *7:3 6.80714
2 *186:I *7:3 9.60777
3 *186:I *7:5 0.001
4 *225:I *7:3 9.25585
5 *225:I *7:4 0.001
*END

*D_NET *8 9.22459

*CONN
*P *86 I *C 34.4400 4.0000
*I *187:I I *C 23.8000 52.9200
*I *226:I I *C 28.8400 52.9200

*CAP
1 *86 *4:3 0.119265
2 *86 *5:3 0.145982
3 *86 *84 0.32146
4 *86 *85 0.217283
5 *86 *87 0.233437
6 *86 *9:5 0.956041
7 *8:3 *9:5 0.0500898
8 *8:3 *22:2 0.0208621
9 *8:3 *23:2 0.0326774
10 *8:3 *24:2 0.0172355
11 *86 *25:2 0.93654
12 *8:3 *103 0.0330904
13 *8:3 *25:2 1.06387
14 *8:3 *26:3 0.121488
15 *8:3 *105 0.0419219
16 *8:3 *106 0.0281823
17 *8:3 *37:2 0.000694115
18 *8:3 *38:2 0.0953681
19 *8:3 *41:3 1.01673
20 *86 2.04494
21 *187:I 0.226744
22 *226:I 0.0365122
23 *8:3 1.46417
24 *8:5 0.0

*RES
1 *86 *8:3 16.2567
2 *187:I *8:3 9.60777
3 *187:I *8:4 0.001
4 *226:I *8:3 8.46765
5 *226:I *8:5 0.001
*END

*D_NET *9 5.44337

*CONN
*P *87 I *C 36.6800 4.0000
*I *188:I I *C 35.5600 40.0400
*I *227:I I *C 36.6800 45.0800

*CAP
1 *87 *4:3 0.0172927
2 *9:5 *5:3 0.00147863
3 *9:5 *84 0.398594
4 *87 *85 0.176037
5 *9:5 *85 0.0488552
6 *87 *86 0.233437
7 *9:5 *86 0.956041
8 *9:5 *8:3 0.0500898
9 *87 *10:3 0.219905
10 *9:5 *10:3 0.259889
11 *9:5 *25:2 0.0564702
12 *9:5 *105 0.0330335
13 *9:5 *117 0.0074653
14 *87 1.08975
15 *227:I 0.121312
16 *9:3 0.0741891
17 *9:5 1.69953
18 *9:6 0.0

*RES
1 *87 *9:5 8.25058
2 *188:I *9:5 4.23383
3 *188:I *9:4 0.001
4 *188:I *9:3 0.001
5 *227:I *9:5 5.62261
6 *227:I *9:6 0.001
*END

*D_NET *10 5.78223

*CONN
*P *88 I *C 38.9200 4.0000
*I *189:I I *C 42.8400 36.6800
*I *228:I I *C 38.9200 49.0000

*CAP
1 *10:3 *4:3 0.112638
2 *10:3 *5:3 0.102749
3 *10:3 *84 0.00170511
4 *10:3 *85 0.0661158
5 *10:3 *87 0.219905
6 *10:3 *9:5 0.259889
7 *10:3 *89 0.498508
8 *10:3 *105 0.0533526
9 *10:3 *106 0.0368301
10 *10:3 *29:2 0.266529
11 *10:3 *63:2 0.0422347
12 *88 1.74653
13 *189:I 0.161305
14 *10:3 2.21394
15 *10:5 0.0

*RES
1 *88 *10:3 7.27143
2 *189:I *10:3 13.614
3 *189:I *10:5 0.001
4 *228:I *10:4 0.001
5 *228:I *10:3 6.97477
*END

*D_NET *11 5.45116

*CONN
*P *89 I *C 41.1600 4.0000
*I *190:I I *C 51.2400 32.2000
*I *229:I I *C 46.2000 33.3200

*CAP
1 *89 *6:3 0.0178072
2 *89 *7:3 0.0640836
3 *89 *10:3 0.498508
4 *89 *29:2 0.0063832
5 *89 *39:6 0.0592213
6 *11:4 *118 0.0439565
7 *11:4 *40:3 0.117249
8 *11:4 *135 0.0923361
9 *89 *63:2 0.281008
10 *89 *72:2 0.398617
11 *89 *73:2 0.070758
12 *89 1.69778
13 *190:I 0.25264
14 *11:3 0.0711547
15 *11:4 1.77966
16 *11:6 0.0

*RES
1 *89 *11:4 15.9323
2 *190:I *11:6 0.001
3 *190:I *11:3 0.001
4 *190:I *11:4 13.8627
5 *229:I *11:5 0.001
6 *229:I *11:4 4.50359
*END

*D_NET *12 5.73327

*CONN
*P *90 I *C 5.3200 4.0000
*I *173:I I *C 18.7600 36.6800
*I *212:I I *C 13.7200 37.2400

*CAP
1 *90 *81 0.549354
2 *12:3 *3:3 0.00879446
3 *90 *91 0.64927
4 *12:3 *93 0.107106
5 *90 *19:3 0.0425384
6 *90 *30:2 0.0134502
7 *12:3 *34:2 0.283789
8 *12:3 *35:2 0.00520982
9 *12:3 *36:2 0.105477
10 *12:3 *37:2 0.00754054
11 *90 *118 0.117324
12 *90 1.76724
13 *173:I 0.364118
14 *12:3 1.71206
15 *12:5 0.0

*RES
1 *90 *12:3 17.673
2 *173:I *12:3 13.8627
3 *173:I *12:5 0.001
4 *212:I *12:4 0.001
5 *212:I *12:3 4.37925
*END

*D_NET *13 7.93333

*CONN
*P *91 I *C 7.5600 4.0000
*I *174:I I *C 18.7600 52.3600
*I *213:I I *C 13.7200 52.9200

*CAP
1 *91 *81 0.0136438
2 *91 *90 0.64927
3 *91 *92 0.583881
4 *13:3 *15:3 0.00940623
5 *91 *19:3 0.0456314
6 *91 *21:3 0.00250945
7 *91 *30:2 0.334828
8 *91 *31:3 0.062356
9 *91 *32:3 0.0863797
10 *13:3 *33:2 0.0463334
11 *13:3 *34:2 0.0456314
12 *13:3 *35:2 0.0400368
13 *13:3 *36:2 0.155332
14 *13:3 *37:2 0.0417848
15 *13:3 *119 1.16721
16 *91 2.21529
17 *174:I 0.266615
18 *213:I 0.0304976
19 *13:3 2.1367
20 *13:5 0.0

*RES
1 *91 *13:3 16.6297
2 *174:I *13:3 9.67993
3 *174:I *13:5 0.001
4 *213:I *13:3 8.46765
5 *213:I *13:4 0.001
*END

*D_NET *14 6.47918

*CONN
*P *92 I *C 9.8000 4.0000
*I *175:I I *C 19.8800 44.5200
*I *214:I I *C 14.8400 45.0800

*CAP
1 *14:3 *3:3 0.249096
2 *92 *91 0.583881
3 *92 *93 0.395861
4 *14:3 *15:3 0.0403481
5 *92 *19:3 0.0188188
6 *92 *32:3 0.01363
7 *92 *34:2 0.279797
8 *92 *35:2 0.294884
9 *92 *36:2 0.00330044
10 *14:3 *36:2 0.00815884
11 *14:3 *37:2 0.119619
12 *92 *221:Z 0.00525073
13 *14:3 *38:2 0.000875756
14 *92 2.58582
15 *175:I 0.219903
16 *14:3 1.65993
17 *14:5 0.0

*RES
1 *92 *14:3 18.6676
2 *175:I *14:3 13.8627
3 *175:I *14:5 0.001
4 *214:I *14:4 0.001
5 *214:I *14:3 4.37925
*END

*D_NET *15 7.77952

*CONN
*P *93 I *C 12.0400 4.0000
*I *176:I I *C 22.6800 48.4400
*I *215:I I *C 17.0800 49.0000

*CAP
1 *93 *3:3 0.015744
2 *93 *12:3 0.107106
3 *15:3 *13:3 0.00940623
4 *93 *92 0.395861
5 *15:3 *14:3 0.0403481
6 *93 *94 0.266757
7 *93 *19:3 0.00187449
8 *93 *32:3 0.0219322
9 *93 *33:2 0.0304124
10 *93 *34:2 0.385687
11 *93 *35:2 0.0538233
12 *15:3 *35:2 0.00344474
13 *93 *36:2 0.0521304
14 *15:3 *37:2 0.00304883
15 *93 *221:Z 1.38515
16 *15:3 *38:2 0.104436
17 *93 *117 0.00648709
18 *93 1.62266
19 *176:I 0.0274306
20 *215:I 0.034479
21 *15:3 3.2113
22 *15:5 0.0

*RES
1 *93 *15:3 15.1376
2 *176:I *15:3 9.73211
3 *176:I *15:5 0.001
4 *215:I *15:3 8.63417
5 *215:I *15:4 0.001
*END

*D_NET *16 4.30633

*CONN
*P *94 I *C 14.2800 4.0000
*I *177:I I *C 22.6800 24.3600
*I *216:I I *C 19.8800 21.5600

*CAP
1 *94 *93 0.266757
2 *94 *17:3 0.227995
3 *16:5 *17:3 0.142271
4 *16:5 *96 0.234887
5 *16:5 *20:3 0.00386398
6 *94 *35:2 0.0157883
7 *16:5 *35:2 0.0467859
8 *94 *219:Z 0.130287
9 *16:5 *219:Z 0.0515861
10 *94 *221:Z 0.179218
11 *16:5 *38:2 0.0102827
12 *16:5 *118 0.00138306
13 *94 1.54924
14 *177:I 0.231892
15 *16:3 0.0740266
16 *16:5 1.14007
17 *16:6 0.0

*RES
1 *94 *16:5 13.6942
2 *177:I *16:6 0.001
3 *177:I *16:3 0.001
4 *177:I *16:5 14.0081
5 *216:I *16:5 4.23383
6 *216:I *16:4 0.001
*END

*D_NET *17 3.64932

*CONN
*P *95 I *C 16.5200 4.0000
*I *178:I I *C 19.3200 24.3600
*I *217:I I *C 17.0800 17.6400

*CAP
1 *17:3 *94 0.227995
2 *17:3 *16:5 0.142271
3 *17:3 *96 0.540022
4 *17:3 *35:2 0.0317337
5 *17:3 *219:Z 0.972543
6 *95 0.207913
7 *178:I 0.115971
8 *17:3 1.34248
9 *17:4 0.0683945
10 *17:6 0.0

*RES
1 *95 *17:3 3.02847
2 *178:I *17:3 14.7963
3 *178:I *17:6 0.001
4 *178:I *17:4 0.001
5 *217:I *17:3 4.23383
6 *217:I *17:5 0.001
*END

*D_NET *18 4.77806

*CONN
*P *96 I *C 18.7600 4.0000
*I *179:I I *C 28.8400 29.4000
*I *218:I I *C 23.8000 29.4000

*CAP
1 *96 *16:5 0.234887
2 *96 *17:3 0.540022
3 *96 *97 0.187698
4 *96 *19:3 0.0463165
5 *96 *22:2 0.0145076
6 *18:3 *23:2 0.0488569
7 *18:3 *24:2 0.016816
8 *96 *35:2 0.0247716
9 *96 *36:2 0.173301
10 *96 *219:Z 0.0211135
11 *96 *37:2 0.0719858
12 *96 *38:2 0.0476329
13 *18:3 *38:2 0.0342134
14 *18:3 *118 0.398258
15 *96 1.0552
16 *179:I 0.0224325
17 *218:I 0.0339576
18 *18:3 1.80609
19 *18:5 0.0

*RES
1 *96 *18:3 11.0346
2 *179:I *18:3 9.60777
3 *179:I *18:5 0.001
4 *218:I *18:3 8.46765
5 *218:I *18:4 0.001
*END

*D_NET *19 3.10329

*CONN
*P *97 I *C 21.0000 4.0000
*I *180:I I *C 4.2000 9.8000
*I *219:I I *C 8.1200 9.8000

*CAP
1 *19:3 *81 0.0364775
2 *19:3 *90 0.0425384
3 *19:3 *91 0.0456314
4 *19:3 *92 0.0188188
5 *19:3 *93 0.00187449
6 *97 *96 0.187698
7 *19:3 *96 0.0463165
8 *97 *20:3 0.198165
9 *19:3 *20:3 0.0165847
10 *19:3 *117 0.646276
11 *97 0.605762
12 *180:I 0.211326
13 *219:I 0.0186648
14 *19:3 1.02715
15 *19:5 0.0

*RES
1 *97 *19:3 8.29917
2 *180:I *19:3 9.3591
3 *180:I *19:4 0.001
4 *219:I *19:3 8.46765
5 *219:I *19:5 0.001
*END

*D_NET *20 3.33398

*CONN
*P *98 I *C 23.2400 4.0000
*I *182:I I *C 24.9200 24.3600
*I *221:I I *C 23.8000 13.7200

*CAP
1 *20:3 *82 0.218415
2 *20:3 *83 0.00690183
3 *20:3 *16:5 0.00386398
4 *20:3 *97 0.198165
5 *20:3 *19:3 0.0165847
6 *20:3 *22:2 1.01071
7 *20:3 *23:2 0.00964977
8 *20:3 *117 0.0187559
9 *98 0.207913
10 *182:I 0.0573115
11 *20:3 1.51291
12 *20:4 0.0727964
13 *20:6 0.0

*RES
1 *98 *20:3 2.15812
2 *182:I *20:3 6.83489
3 *182:I *20:6 0.001
4 *182:I *20:4 0.001
5 *221:I *20:3 4.23383
6 *221:I *20:5 0.001
*END

*D_NET *21 2.53022

*CONN
*P *99 O *C 3.0800 61.0000
*I *211:Z O *C 4.7600 41.7200 *D gf180mcu_fd_sc_mcu7t5v0__clkbuf_8

*CAP
1 *21:3 *81 0.0483383
2 *21:3 *3:3 0.0613122
3 *21:3 *91 0.00250945
4 *21:3 *30:2 0.556312
5 *99 0.490878
6 *21:3 1.37087
7 *21:4 0.0

*RES
1 *99 *21:3 4.67481
2 *211:Z *21:3 4.23383
3 *211:Z *21:2 0.001
4 *211:Z *21:4 0.538142
*END

*D_NET *22 6.31734

*CONN
*P *100 O *C 25.4800 61.0000
*I *222:Z O *C 25.4800 10.3600 *D gf180mcu_fd_sc_mcu7t5v0__clkbuf_8

*CAP
1 *22:2 *82 0.033294
2 *22:2 *83 0.100767
3 *22:2 *8:3 0.0208621
4 *22:2 *96 0.0145076
5 *22:2 *20:3 1.01071
6 *100 *101 0.122797
7 *22:2 *23:2 0.662471
8 *100 *116 0.122797
9 *22:2 *38:2 0.488678
10 *100 0.207913
11 *222:Z 0.935598
12 *22:2 2.59694
13 *22:4 0.0

*RES
1 *100 *22:2 2.39347
2 *222:Z *22:2 13.105
3 *222:Z *22:3 0.001
4 *222:Z *22:4 0.320554
*END

*D_NET *23 4.7224

*CONN
*P *101 O *C 27.7200 61.0000
*I *223:Z O *C 27.7200 18.2000 *D gf180mcu_fd_sc_mcu7t5v0__clkbuf_8

*CAP
1 *23:2 *83 0.0343578
2 *23:2 *84 0.0149375
3 *23:2 *8:3 0.0326774
4 *23:2 *18:3 0.0488569
5 *23:2 *20:3 0.00964977
6 *101 *100 0.122797
7 *23:2 *22:2 0.662471
8 *101 *102 0.122797
9 *23:2 *24:2 0.590084
10 *101 0.207913
11 *223:Z 0.687478
12 *23:2 2.18838
13 *23:3 0.0

*RES
1 *101 *23:2 0.652764
2 *223:Z *23:2 13.105
3 *223:Z *23:3 0.001
*END

*D_NET *24 4.6435

*CONN
*P *102 O *C 29.9600 61.0000
*I *224:Z O *C 29.9600 21.0000 *D gf180mcu_fd_sc_mcu7t5v0__clkbuf_8

*CAP
1 *24:2 *84 0.0131784
2 *24:2 *8:3 0.0172355
3 *24:2 *18:3 0.016816
4 *102 *101 0.122797
5 *24:2 *23:2 0.590084
6 *102 *103 0.122797
7 *24:2 *103 0.152506
8 *24:2 *25:2 0.0946288
9 *24:2 *105 0.0125284
10 *102 0.207913
11 *24:2 3.29301
12 *24:3 0.0

*RES
1 *102 *24:2 4.47165
2 *224:Z *24:2 8.6644
3 *224:Z *24:3 0.001
*END

*D_NET *25 6.90344

*CONN
*P *103 O *C 32.2000 61.0000
*I *225:Z O *C 32.7600 13.1600 *D gf180mcu_fd_sc_mcu7t5v0__clkbuf_8

*CAP
1 *25:2 *5:3 0.0203562
2 *25:2 *84 0.0475869
3 *25:2 *6:3 0.00673833
4 *25:2 *86 0.93654
5 *103 *8:3 0.0330904
6 *25:2 *8:3 1.06387
7 *25:2 *9:5 0.0564702
8 *103 *102 0.122797
9 *103 *24:2 0.152506
10 *25:2 *24:2 0.0946288
11 *103 *26:3 0.264428
12 *25:2 *105 0.25184
13 *103 2.82273
14 *25:2 1.02987
15 *25:3 0.0

*RES
1 *103 *25:2 9.62716
2 *225:Z *25:3 0.001
3 *225:Z *25:2 5.49828
*END

*D_NET *26 1.36205

*CONN
*P *104 O *C 34.4400 61.0000
*I *226:Z O *C 34.4400 52.3600 *D gf180mcu_fd_sc_mcu7t5v0__clkbuf_8

*CAP
1 *26:3 *8:3 0.121488
2 *26:3 *103 0.264428
3 *26:3 *105 0.293825
4 *104 0.207913
5 *26:3 0.474397

*RES
1 *104 *26:3 1.93942
2 *226:Z *26:3 4.23383
3 *226:Z *26:2 0.001
*END

*D_NET *27 2.8191

*CONN
*P *105 O *C 36.6800 61.0000
*I *227:Z O *C 32.7600 44.5200 *D gf180mcu_fd_sc_mcu7t5v0__clkbuf_8

*CAP
1 *105 *8:3 0.0419219
2 *105 *9:5 0.0330335
3 *105 *10:3 0.0533526
4 *105 *24:2 0.0125284
5 *105 *25:2 0.25184
6 *105 *26:3 0.293825
7 *105 *106 0.365432
8 *105 0.428393
9 *227:Z 0.0586535
10 *27:2 1.28012
11 *27:3 0.0

*RES
1 *105 *27:2 8.45348
2 *227:Z *27:2 8.88285
3 *227:Z *27:3 0.001
*END

*D_NET *28 2.0711

*CONN
*P *106 O *C 38.9200 61.0000
*I *228:Z O *C 35.5600 49.5600 *D gf180mcu_fd_sc_mcu7t5v0__clkbuf_8

*CAP
1 *106 *8:3 0.0281823
2 *106 *10:3 0.0368301
3 *106 *105 0.365432
4 *106 *107 0.122797
5 *106 *29:2 0.191129
6 *106 *41:3 0.0381914
7 *106 0.447355
8 *228:Z 0.0330748
9 *28:2 0.808108
10 *28:3 0.0

*RES
1 *106 *28:2 7.45879
2 *228:Z *28:2 8.63417
3 *228:Z *28:3 0.001
*END

*D_NET *29 3.18839

*CONN
*P *107 O *C 41.1600 61.0000
*I *229:Z O *C 41.1600 33.8800 *D gf180mcu_fd_sc_mcu7t5v0__clkbuf_8

*CAP
1 *29:2 *10:3 0.266529
2 *29:2 *89 0.0063832
3 *107 *106 0.122797
4 *29:2 *106 0.191129
5 *107 *123 0.122797
6 *29:2 *123 0.253769
7 *29:2 *63:2 0.0303463
8 *107 0.207913
9 *29:2 1.98673
10 *29:3 0.0

*RES
1 *107 *29:2 1.61193
2 *229:Z *29:2 8.6644
3 *229:Z *29:3 0.001
*END

*D_NET *30 2.96917

*CONN
*P *108 O *C 5.3200 61.0000
*I *212:Z O *C 5.3200 36.6800 *D gf180mcu_fd_sc_mcu7t5v0__clkbuf_8

*CAP
1 *30:2 *81 0.0653558
2 *30:2 *90 0.0134502
3 *30:2 *91 0.334828
4 *30:2 *21:3 0.556312
5 *30:2 *31:3 0.276032
6 *108 0.207913
7 *30:2 1.51528
8 *30:3 0.0

*RES
1 *108 *30:2 0.990247
2 *212:Z *30:2 8.6644
3 *212:Z *30:3 0.001
*END

*D_NET *31 1.23867

*CONN
*P *109 O *C 7.5600 61.0000
*I *213:Z O *C 7.5600 53.4800 *D gf180mcu_fd_sc_mcu7t5v0__clkbuf_8

*CAP
1 *31:3 *91 0.062356
2 *31:3 *30:2 0.276032
3 *31:3 *32:3 0.26612
4 *109 0.207913
5 *31:3 0.426249

*RES
1 *109 *31:3 1.69075
2 *213:Z *31:3 4.23383
3 *213:Z *31:2 0.001
*END

*D_NET *32 2.17215

*CONN
*P *110 O *C 9.8000 61.0000
*I *214:Z O *C 9.8000 44.5200 *D gf180mcu_fd_sc_mcu7t5v0__clkbuf_8

*CAP
1 *32:3 *91 0.0863797
2 *32:3 *92 0.01363
3 *32:3 *93 0.0219322
4 *32:3 *31:3 0.26612
5 *32:3 *33:2 0.280306
6 *110 0.207913
7 *32:3 1.29586

*RES
1 *110 *32:3 3.68012
2 *214:Z *32:3 4.23383
3 *214:Z *32:2 0.001
*END

*D_NET *33 1.76095

*CONN
*P *111 O *C 12.0400 61.0000
*I *215:Z O *C 12.6000 49.5600 *D gf180mcu_fd_sc_mcu7t5v0__clkbuf_8

*CAP
1 *33:2 *13:3 0.0463334
2 *33:2 *93 0.0304124
3 *33:2 *32:3 0.280306
4 *33:2 *112 0.122797
5 *33:2 *34:2 0.217769
6 *33:2 *35:2 0.0038858
7 *33:2 *119 0.0128022
8 *111 0.207913
9 *215:Z 0.0741447
10 *33:2 0.76459
11 *33:3 0.0

*RES
1 *111 *33:2 1.66965
2 *215:Z *33:2 5.12527
3 *215:Z *33:3 0.001
*END

*D_NET *34 5.41255

*CONN
*P *112 O *C 14.2800 61.0000
*I *216:Z O *C 14.2800 21.0000 *D gf180mcu_fd_sc_mcu7t5v0__clkbuf_8

*CAP
1 *34:2 *3:3 0.0949588
2 *34:2 *12:3 0.283789
3 *34:2 *13:3 0.0456314
4 *34:2 *92 0.279797
5 *34:2 *93 0.385687
6 *112 *33:2 0.122797
7 *34:2 *33:2 0.217769
8 *112 *113 0.122797
9 *34:2 *35:2 1.1324
10 *34:2 *36:2 0.0174687
11 *34:2 *219:Z 0.0221995
12 *34:2 *221:Z 0.240982
13 *112 0.207913
14 *34:2 2.23835
15 *34:3 0.0

*RES
1 *112 *34:2 4.47165
2 *216:Z *34:2 8.6644
3 *216:Z *34:3 0.001
*END

*D_NET *35 6.20238

*CONN
*P *113 O *C 16.5200 61.0000
*I *217:Z O *C 13.7200 18.2000 *D gf180mcu_fd_sc_mcu7t5v0__clkbuf_8

*CAP
1 *35:2 *12:3 0.00520982
2 *35:2 *13:3 0.0400368
3 *35:2 *92 0.294884
4 *35:2 *93 0.0538233
5 *35:2 *15:3 0.00344474
6 *35:2 *94 0.0157883
7 *35:2 *16:5 0.0467859
8 *35:2 *17:3 0.0317337
9 *35:2 *96 0.0247716
10 *35:2 *33:2 0.0038858
11 *113 *112 0.122797
12 *35:2 *34:2 1.1324
13 *113 *114 0.122797
14 *35:2 *36:2 0.401769
15 *35:2 *219:Z 0.720094
16 *35:2 *221:Z 0.0964054
17 *113 0.207913
18 *217:Z 0.868528
19 *35:2 2.00931
20 *35:3 0.0

*RES
1 *113 *35:2 2.04266
2 *217:Z *35:2 12.2846
3 *217:Z *35:3 0.001
*END

*D_NET *36 3.95366

*CONN
*P *114 O *C 18.7600 61.0000
*I *218:Z O *C 18.2000 28.8400 *D gf180mcu_fd_sc_mcu7t5v0__clkbuf_8

*CAP
1 *36:2 *3:3 0.0944555
2 *36:2 *12:3 0.105477
3 *36:2 *13:3 0.155332
4 *36:2 *92 0.00330044
5 *36:2 *14:3 0.00815884
6 *36:2 *93 0.0521304
7 *36:2 *96 0.173301
8 *36:2 *34:2 0.0174687
9 *114 *113 0.122797
10 *36:2 *35:2 0.401769
11 *114 *115 0.122797
12 *36:2 *37:2 0.441338
13 *36:2 *119 0.00556283
14 *114 0.207913
15 *218:Z 0.273379
16 *36:2 1.76848
17 *36:3 0.0

*RES
1 *114 *36:2 1.66965
2 *218:Z *36:3 0.001
3 *218:Z *36:2 9.7257
*END

*D_NET *37 7.71577

*CONN
*P *115 O *C 21.0000 61.0000
*I *219:Z O *C 15.9600 10.3600 *D gf180mcu_fd_sc_mcu7t5v0__clkbuf_8

*CAP
1 *37:2 *3:3 0.016074
2 *37:2 *8:3 0.000694115
3 *37:2 *12:3 0.00754054
4 *37:2 *13:3 0.0417848
5 *37:2 *14:3 0.119619
6 *37:2 *15:3 0.00304883
7 *219:Z *94 0.130287
8 *219:Z *16:5 0.0515861
9 *219:Z *17:3 0.972543
10 *219:Z *96 0.0211135
11 *37:2 *96 0.0719858
12 *219:Z *34:2 0.0221995
13 *219:Z *35:2 0.720094
14 *115 *114 0.122797
15 *37:2 *36:2 0.441338
16 *115 *116 0.122797
17 *219:Z *221:Z 0.0106723
18 *219:Z *38:2 0.0992804
19 *37:2 *38:2 0.254723
20 *219:Z *118 0.0149447
21 *115 0.207913
22 *219:Z 0.6269
23 *37:2 3.63583
24 *37:3 0.0

*RES
1 *115 *37:2 1.17231
2 *219:Z *37:2 23.8728
3 *219:Z *37:3 0.001
*END

*D_NET *38 8.41451

*CONN
*P *116 O *C 23.2400 61.0000
*I *221:Z O *C 13.1600 13.1600 *D gf180mcu_fd_sc_mcu7t5v0__clkbuf_8

*CAP
1 *38:2 *8:3 0.0953681
2 *221:Z *92 0.00525073
3 *38:2 *14:3 0.000875756
4 *221:Z *93 1.38515
5 *38:2 *15:3 0.104436
6 *221:Z *94 0.179218
7 *38:2 *16:5 0.0102827
8 *38:2 *96 0.0476329
9 *38:2 *18:3 0.0342134
10 *116 *100 0.122797
11 *38:2 *22:2 0.488678
12 *221:Z *34:2 0.240982
13 *221:Z *35:2 0.0964054
14 *116 *115 0.122797
15 *221:Z *219:Z 0.0106723
16 *38:2 *219:Z 0.0992804
17 *38:2 *37:2 0.254723
18 *38:2 *118 1.00625
19 *116 0.207913
20 *221:Z 1.00671
21 *38:2 2.89487
22 *38:3 0.0

*RES
1 *116 *38:2 2.97962
2 *221:Z *38:2 22.6872
3 *221:Z *38:3 0.001
*END

*D_NET *39 6.58503

*CONN
*P *117 I *C 4.0000 10.9200
*I *168:I I *C 42.2800 16.5200
*I *207:I I *C 43.4000 13.7200

*CAP
1 *117 *4:3 0.182758
2 *117 *7:3 0.954958
3 *117 *9:5 0.0074653
4 *39:6 *89 0.0592213
5 *117 *93 0.00648709
6 *117 *19:3 0.646276
7 *117 *20:3 0.0187559
8 *117 *63:2 0.0025861
9 *39:6 *63:2 0.652152
10 *39:6 *150 0.00999763
11 *117 1.90933
12 *168:I 0.0171942
13 *39:3 0.0991711
14 *39:6 2.01868

*RES
1 *117 *39:6 13.6456
2 *168:I *39:6 5.07309
3 *168:I *39:4 0.001
4 *168:I *39:3 0.001
5 *207:I *39:6 4.23383
6 *207:I *39:5 0.001
*END

*D_NET *40 9.31961

*CONN
*P *118 I *C 4.0000 32.2000
*I *169:I I *C 63.0000 26.0400
*I *208:I I *C 66.3600 29.4000

*CAP
1 *118 *81 0.12177
2 *118 *11:4 0.0439565
3 *40:3 *11:4 0.117249
4 *118 *90 0.117324
5 *118 *16:5 0.00138306
6 *118 *18:3 0.398258
7 *118 *219:Z 0.0149447
8 *118 *38:2 1.00625
9 *40:3 *46:3 0.219055
10 *40:3 *52:3 0.0260452
11 *40:3 *57:3 0.124524
12 *40:3 *58:3 0.00293764
13 *40:3 *139 0.047607
14 *40:3 *140 0.106335
15 *40:3 *62:4 0.0220304
16 *40:3 *65:2 0.0258672
17 *40:3 *70:2 0.893307
18 *118 3.7731
19 *169:I 0.10941
20 *208:I 0.07135
21 *40:3 2.07691
22 *40:5 0.0

*RES
1 *118 *40:3 14.4829
2 *169:I *40:3 9.00718
3 *169:I *40:4 0.001
4 *208:I *40:3 9.51008
5 *208:I *40:5 0.001
*END

*D_NET *41 8.58256

*CONN
*P *119 I *C 4.0000 53.4800
*I *171:I I *C 61.8800 53.4800
*I *210:I I *C 63.0000 49.0000

*CAP
1 *41:3 *8:3 1.01673
2 *119 *13:3 1.16721
3 *41:3 *106 0.0381914
4 *119 *33:2 0.0128022
5 *119 *36:2 0.00556283
6 *41:3 *55:3 0.0696179
7 *41:3 *135 0.0281298
8 *41:3 *138 0.0103296
9 *41:3 *139 0.480552
10 *41:3 *140 0.106291
11 *119 3.74098
12 *210:I 0.0611785
13 *41:3 1.84498
14 *41:5 0.0

*RES
1 *119 *41:3 17.1059
2 *171:I *41:3 4.23383
3 *171:I *41:4 0.001
4 *210:I *41:5 0.001
5 *210:I *41:3 5.46719
*END

*D_NET *42 4.95425

*CONN
*P *120 O *C 81.0000 10.9200
*I *207:Z O *C 55.1600 13.1600 *D gf180mcu_fd_sc_mcu7t5v0__clkbuf_8

*CAP
1 *42:2 *46:3 1.06022
2 *42:2 *60:6 0.0321806
3 *42:2 *64:2 1.02856
4 *42:2 *67:2 0.00574083
5 *42:2 *148 0.00145126
6 *42:2 *154 0.238779
7 *42:2 *155 0.0786667
8 *42:2 *78:2 0.0149297
9 *120 0.603483
10 *207:Z 0.120215
11 *42:2 1.77002
12 *42:3 0.0

*RES
1 *120 *42:2 1.32773
2 *207:Z *42:2 13.3745
3 *207:Z *42:3 0.001
*END

*D_NET *43 1.82921

*CONN
*P *121 O *C 81.0000 32.2000
*I *208:Z O *C 75.3200 29.9600 *D gf180mcu_fd_sc_mcu7t5v0__clkbuf_8

*CAP
1 *43:2 *48:4 0.311671
2 *43:2 *128 0.0184911
3 *43:2 *50:5 0.0290033
4 *43:2 *52:3 0.0378408
5 *43:2 *67:2 0.000504862
6 *43:2 *69:2 0.0582807
7 *43:2 *70:2 0.00648602
8 *43:2 *206:Z 0.263842
9 *121 0.604113
10 *208:Z 0.0641659
11 *43:2 0.434807
12 *43:3 0.0

*RES
1 *121 *43:2 1.28221
2 *208:Z *43:2 9.00718
3 *208:Z *43:3 0.001
*END

*D_NET *44 2.20193

*CONN
*P *122 O *C 81.0000 53.4800
*I *210:Z O *C 71.9600 49.5600 *D gf180mcu_fd_sc_mcu7t5v0__clkbuf_8

*CAP
1 *44:2 *126 0.035847
2 *44:2 *49:4 0.0175736
3 *44:2 *128 0.0213044
4 *44:2 *51:3 0.000755527
5 *44:2 *67:2 0.30811
6 *122 0.620362
7 *210:Z 0.169038
8 *44:2 1.02894
9 *44:3 0.0

*RES
1 *122 *44:2 2.02823
2 *210:Z *44:2 9.38019
3 *210:Z *44:3 0.001
*END

*D_NET *45 3.99861

*CONN
*P *123 I *C 43.4000 61.0000
*I *159:I I *C 53.4800 41.1600
*I *198:I I *C 48.4400 41.1600

*CAP
1 *123 *107 0.122797
2 *123 *29:2 0.253769
3 *123 *132 0.230994
4 *45:3 *56:3 0.00986692
5 *45:3 *135 0.00288185
6 *45:3 *58:3 0.00201633
7 *123 *63:2 0.211303
8 *123 *72:2 0.164313
9 *123 *73:2 0.0905465
10 *123 *74:2 0.0365361
11 *123 0.720182
12 *159:I 0.0304413
13 *198:I 0.0183966
14 *45:3 2.10457
15 *45:5 0.0

*RES
1 *123 *45:3 9.80008
2 *159:I *45:3 9.60777
3 *159:I *45:5 0.001
4 *198:I *45:3 8.46765
5 *198:I *45:4 0.001
*END

*D_NET *46 9.25806

*CONN
*P *124 I *C 65.8000 61.0000
*I *160:I I *C 77.5600 10.3600
*I *199:I I *C 58.5200 9.8000

*CAP
1 *46:3 *40:3 0.219055
2 *46:3 *42:2 1.06022
3 *124 *125 0.477396
4 *46:3 *52:3 0.385301
5 *124 *59:4 0.002207
6 *46:3 *59:4 0.0942862
7 *46:3 *60:6 0.0617353
8 *124 *140 0.752101
9 *46:3 *140 0.108308
10 *46:3 *142 0.025255
11 *46:3 *64:2 0.0659137
12 *124 *65:2 0.0728873
13 *46:3 *65:2 0.218345
14 *46:3 *147 0.19358
15 *46:3 *148 0.0663731
16 *46:3 *155 0.0873557
17 *46:3 *157 0.0492186
18 *46:3 *80:2 0.162921
19 *124 2.50491
20 *160:I 0.481245
21 *199:I 0.748628
22 *46:3 1.42082
23 *46:5 0.0

*RES
1 *124 *46:3 10.7462
2 *160:I *46:5 0.001
3 *160:I *46:3 15.8942
4 *199:I *46:4 0.001
5 *199:I *46:3 15.045
*END

*D_NET *47 4.50295

*CONN
*P *125 I *C 68.0400 61.0000
*I *161:I I *C 77.5600 38.3600
*I *200:I I *C 72.5200 37.2400

*CAP
1 *125 *124 0.477396
2 *125 *126 0.431862
3 *125 *128 0.00128894
4 *47:4 *130 0.0330886
5 *125 *65:2 0.0103033
6 *125 *67:2 0.115113
7 *47:4 *69:2 0.121234
8 *125 *206:Z 0.0407381
9 *125 1.80685