*SPEF "IEEE 1481-1999"
*DESIGN "mprj_io_buffer"
*DATE "Tue Oct 17 02:31:34 2023"
*VENDOR "Synopsys Inc."
*PROGRAM "StarRC"
*VERSION "U-2022.12-SP4"
*DESIGN_FLOW "PIN_CAP NONE" "NAME_SCOPE LOCAL"
*DIVIDER /
*DELIMITER :
*BUS_DELIMITER []
*T_UNIT 1.0 NS
*C_UNIT 1.0 FF
*R_UNIT 1.0 OHM
*L_UNIT 1.0 HENRY

// COMMENTS

// CORNER_NAME 
// OPERATING_TEMPERATURE -40
// GLOBAL_TEMPERATURE 25
// TCAD_GRD_FILE /home/passant/caravel-gf180mcu/scripts/gf180mcu-tech/gf180mcu_1p5m_1tm_11k_sp_smim_OPTB_bst.nxtgrd
//   TCAD_TIME_STAMP Tue Dec 26 18:39:34 2017
//   TCADGRD_VERSION 75
// galaxy_comments_begin
//   local_nodeid
// galaxy_comments_end

*NAME_MAP
*81 mgmt_gpio_in[0]
*82 mgmt_gpio_in[10]
*83 mgmt_gpio_in[11]
*84 mgmt_gpio_in[12]
*85 mgmt_gpio_in[13]
*86 mgmt_gpio_in[14]
*87 mgmt_gpio_in[15]
*88 mgmt_gpio_in[16]
*89 mgmt_gpio_in[17]
*90 mgmt_gpio_in[1]
*91 mgmt_gpio_in[2]
*92 mgmt_gpio_in[3]
*93 mgmt_gpio_in[4]
*94 mgmt_gpio_in[5]
*95 mgmt_gpio_in[6]
*96 mgmt_gpio_in[7]
*97 mgmt_gpio_in[8]
*98 mgmt_gpio_in[9]
*99 mgmt_gpio_in_buf[0]
*100 mgmt_gpio_in_buf[10]
*101 mgmt_gpio_in_buf[11]
*102 mgmt_gpio_in_buf[12]
*103 mgmt_gpio_in_buf[13]
*104 mgmt_gpio_in_buf[14]
*105 mgmt_gpio_in_buf[15]
*106 mgmt_gpio_in_buf[16]
*107 mgmt_gpio_in_buf[17]
*108 mgmt_gpio_in_buf[1]
*109 mgmt_gpio_in_buf[2]
*110 mgmt_gpio_in_buf[3]
*111 mgmt_gpio_in_buf[4]
*112 mgmt_gpio_in_buf[5]
*113 mgmt_gpio_in_buf[6]
*114 mgmt_gpio_in_buf[7]
*115 mgmt_gpio_in_buf[8]
*116 mgmt_gpio_in_buf[9]
*117 mgmt_gpio_oeb[0]
*118 mgmt_gpio_oeb[1]
*119 mgmt_gpio_oeb[2]
*120 mgmt_gpio_oeb_buf[0]
*121 mgmt_gpio_oeb_buf[1]
*122 mgmt_gpio_oeb_buf[2]
*123 mgmt_gpio_out[0]
*124 mgmt_gpio_out[10]
*125 mgmt_gpio_out[11]
*126 mgmt_gpio_out[12]
*127 mgmt_gpio_out[13]
*128 mgmt_gpio_out[14]
*129 mgmt_gpio_out[15]
*130 mgmt_gpio_out[16]
*131 mgmt_gpio_out[17]
*132 mgmt_gpio_out[1]
*133 mgmt_gpio_out[2]
*134 mgmt_gpio_out[3]
*135 mgmt_gpio_out[4]
*136 mgmt_gpio_out[5]
*137 mgmt_gpio_out[6]
*138 mgmt_gpio_out[7]
*139 mgmt_gpio_out[8]
*140 mgmt_gpio_out[9]
*141 mgmt_gpio_out_buf[0]
*142 mgmt_gpio_out_buf[10]
*143 mgmt_gpio_out_buf[11]
*144 mgmt_gpio_out_buf[12]
*145 mgmt_gpio_out_buf[13]
*146 mgmt_gpio_out_buf[14]
*147 mgmt_gpio_out_buf[15]
*148 mgmt_gpio_out_buf[16]
*149 mgmt_gpio_out_buf[17]
*150 mgmt_gpio_out_buf[1]
*151 mgmt_gpio_out_buf[2]
*152 mgmt_gpio_out_buf[3]
*153 mgmt_gpio_out_buf[4]
*154 mgmt_gpio_out_buf[5]
*155 mgmt_gpio_out_buf[6]
*156 mgmt_gpio_out_buf[7]
*157 mgmt_gpio_out_buf[8]
*158 mgmt_gpio_out_buf[9]
*159 ANTENNA_BUF\[0\]_I
*160 ANTENNA_BUF\[10\]_I
*161 ANTENNA_BUF\[11\]_I
*162 ANTENNA_BUF\[12\]_I
*163 ANTENNA_BUF\[13\]_I
*164 ANTENNA_BUF\[14\]_I
*165 ANTENNA_BUF\[15\]_I
*166 ANTENNA_BUF\[16\]_I
*167 ANTENNA_BUF\[17\]_I
*168 ANTENNA_BUF\[18\]_I
*169 ANTENNA_BUF\[19\]_I
*170 ANTENNA_BUF\[1\]_I
*171 ANTENNA_BUF\[20\]_I
*172 ANTENNA_BUF\[21\]_I
*173 ANTENNA_BUF\[22\]_I
*174 ANTENNA_BUF\[23\]_I
*175 ANTENNA_BUF\[24\]_I
*176 ANTENNA_BUF\[25\]_I
*177 ANTENNA_BUF\[26\]_I
*178 ANTENNA_BUF\[27\]_I
*179 ANTENNA_BUF\[28\]_I
*180 ANTENNA_BUF\[29\]_I
*181 ANTENNA_BUF\[2\]_I
*182 ANTENNA_BUF\[30\]_I
*183 ANTENNA_BUF\[31\]_I
*184 ANTENNA_BUF\[32\]_I
*185 ANTENNA_BUF\[33\]_I
*186 ANTENNA_BUF\[34\]_I
*187 ANTENNA_BUF\[35\]_I
*188 ANTENNA_BUF\[36\]_I
*189 ANTENNA_BUF\[37\]_I
*190 ANTENNA_BUF\[38\]_I
*191 ANTENNA_BUF\[3\]_I
*192 ANTENNA_BUF\[4\]_I
*193 ANTENNA_BUF\[5\]_I
*194 ANTENNA_BUF\[6\]_I
*195 ANTENNA_BUF\[7\]_I
*196 ANTENNA_BUF\[8\]_I
*197 ANTENNA_BUF\[9\]_I
*198 BUF[0]
*199 BUF[10]
*200 BUF[11]
*201 BUF[12]
*202 BUF[13]
*203 BUF[14]
*204 BUF[15]
*205 BUF[16]
*206 BUF[17]
*207 BUF[18]
*208 BUF[19]
*209 BUF[1]
*210 BUF[20]
*211 BUF[21]
*212 BUF[22]
*213 BUF[23]
*214 BUF[24]
*215 BUF[25]
*216 BUF[26]
*217 BUF[27]
*218 BUF[28]
*219 BUF[29]
*220 BUF[2]
*221 BUF[30]
*222 BUF[31]
*223 BUF[32]
*224 BUF[33]
*225 BUF[34]
*226 BUF[35]
*227 BUF[36]
*228 BUF[37]
*229 BUF[38]
*230 BUF[3]
*231 BUF[4]
*232 BUF[5]
*233 BUF[6]
*234 BUF[7]
*235 BUF[8]
*236 BUF[9]
*3 mgmt_gpio_in[0]
*4 mgmt_gpio_in[10]
*5 mgmt_gpio_in[11]
*6 mgmt_gpio_in[12]
*7 mgmt_gpio_in[13]
*8 mgmt_gpio_in[14]
*9 mgmt_gpio_in[15]
*10 mgmt_gpio_in[16]
*11 mgmt_gpio_in[17]
*12 mgmt_gpio_in[1]
*13 mgmt_gpio_in[2]
*14 mgmt_gpio_in[3]
*15 mgmt_gpio_in[4]
*16 mgmt_gpio_in[5]
*17 mgmt_gpio_in[6]
*18 mgmt_gpio_in[7]
*19 mgmt_gpio_in[8]
*20 mgmt_gpio_in[9]
*21 mgmt_gpio_in_buf[0]
*22 mgmt_gpio_in_buf[10]
*23 mgmt_gpio_in_buf[11]
*24 mgmt_gpio_in_buf[12]
*25 mgmt_gpio_in_buf[13]
*26 mgmt_gpio_in_buf[14]
*27 mgmt_gpio_in_buf[15]
*28 mgmt_gpio_in_buf[16]
*29 mgmt_gpio_in_buf[17]
*30 mgmt_gpio_in_buf[1]
*31 mgmt_gpio_in_buf[2]
*32 mgmt_gpio_in_buf[3]
*33 mgmt_gpio_in_buf[4]
*34 mgmt_gpio_in_buf[5]
*35 mgmt_gpio_in_buf[6]
*36 mgmt_gpio_in_buf[7]
*37 mgmt_gpio_in_buf[8]
*38 mgmt_gpio_in_buf[9]
*39 mgmt_gpio_oeb[0]
*40 mgmt_gpio_oeb[1]
*41 mgmt_gpio_oeb[2]
*42 mgmt_gpio_oeb_buf[0]
*43 mgmt_gpio_oeb_buf[1]
*44 mgmt_gpio_oeb_buf[2]
*45 mgmt_gpio_out[0]
*46 mgmt_gpio_out[10]
*47 mgmt_gpio_out[11]
*48 mgmt_gpio_out[12]
*49 mgmt_gpio_out[13]
*50 mgmt_gpio_out[14]
*51 mgmt_gpio_out[15]
*52 mgmt_gpio_out[16]
*53 mgmt_gpio_out[17]
*54 mgmt_gpio_out[1]
*55 mgmt_gpio_out[2]
*56 mgmt_gpio_out[3]
*57 mgmt_gpio_out[4]
*58 mgmt_gpio_out[5]
*59 mgmt_gpio_out[6]
*60 mgmt_gpio_out[7]
*61 mgmt_gpio_out[8]
*62 mgmt_gpio_out[9]
*63 mgmt_gpio_out_buf[0]
*64 mgmt_gpio_out_buf[10]
*65 mgmt_gpio_out_buf[11]
*66 mgmt_gpio_out_buf[12]
*67 mgmt_gpio_out_buf[13]
*68 mgmt_gpio_out_buf[14]
*69 mgmt_gpio_out_buf[15]
*70 mgmt_gpio_out_buf[16]
*71 mgmt_gpio_out_buf[17]
*72 mgmt_gpio_out_buf[1]
*73 mgmt_gpio_out_buf[2]
*74 mgmt_gpio_out_buf[3]
*75 mgmt_gpio_out_buf[4]
*76 mgmt_gpio_out_buf[5]
*77 mgmt_gpio_out_buf[6]
*78 mgmt_gpio_out_buf[7]
*79 mgmt_gpio_out_buf[8]
*80 mgmt_gpio_out_buf[9]

*PORTS

*81 I
*82 I
*83 I
*84 I
*85 I
*86 I
*87 I
*88 I
*89 I
*90 I
*91 I
*92 I
*93 I
*94 I
*95 I
*96 I
*97 I
*98 I
*99 O
*100 O
*101 O
*102 O
*103 O
*104 O
*105 O
*106 O
*107 O
*108 O
*109 O
*110 O
*111 O
*112 O
*113 O
*114 O
*115 O
*116 O
*117 I
*118 I
*119 I
*120 O
*121 O
*122 O
*123 I
*124 I
*125 I
*126 I
*127 I
*128 I
*129 I
*130 I
*131 I
*132 I
*133 I
*134 I
*135 I
*136 I
*137 I
*138 I
*139 I
*140 I
*141 O
*142 O
*143 O
*144 O
*145 O
*146 O
*147 O
*148 O
*149 O
*150 O
*151 O
*152 O
*153 O
*154 O
*155 O
*156 O
*157 O
*158 O

*D_NET *3 5.96542

*CONN
*P *81 I *C 3.0800 4.0000
*I *172:I I *C 18.7600 41.1600
*I *211:I I *C 13.7200 41.1600

*CAP
1 *81 *90 0.549097
2 *3:3 *12:3 0.00878795
3 *81 *91 0.0136301
4 *3:3 *14:3 0.248991
5 *3:3 *93 0.0157441
6 *81 *19:3 0.0364771
7 *81 *21:3 0.048334
8 *3:3 *21:3 0.0612921
9 *81 *30:2 0.0653238
10 *3:3 *34:2 0.0949562
11 *3:3 *36:2 0.0944556
12 *3:3 *37:2 0.0160732
13 *81 *118 0.121729
14 *81 2.34596
15 *172:I 0.0170391
16 *211:I 0.0299532
17 *3:3 2.19757
18 *3:5 0.0

*RES
1 *81 *3:3 14.889
2 *172:I *3:3 9.60777
3 *172:I *3:5 0.001
4 *211:I *3:3 8.46765
5 *211:I *3:4 0.001
*END

*D_NET *4 2.86938

*CONN
*P *82 I *C 25.4800 4.0000
*I *183:I I *C 38.3600 9.2400
*I *222:I I *C 33.8800 9.8000

*CAP
1 *82 *83 0.212716
2 *4:3 *85 0.0198718
3 *4:3 *7:3 0.284638
4 *4:3 *86 0.119266
5 *4:3 *87 0.0172927
6 *4:3 *10:3 0.112638
7 *82 *20:3 0.218324
8 *82 *22:2 0.0332887
9 *4:3 *117 0.182597
10 *82 0.972671
11 *183:I 0.0271218
12 *222:I 0.0647537
13 *4:3 0.6042
14 *4:5 0.0

*RES
1 *82 *4:3 7.30448
2 *183:I *4:3 9.48343
3 *183:I *4:5 0.001
4 *222:I *4:3 8.63417
5 *222:I *4:4 0.001
*END

*D_NET *5 3.32964

*CONN
*P *83 I *C 27.7200 4.0000
*I *184:I I *C 38.3600 17.0800
*I *223:I I *C 33.8800 17.6400

*CAP
1 *83 *82 0.212716
2 *83 *84 0.299527
3 *5:3 *6:3 0.176048
4 *5:3 *86 0.145978
5 *5:3 *9:5 0.00147863
6 *5:3 *10:3 0.102748
7 *83 *20:3 0.00689188
8 *83 *22:2 0.100709
9 *83 *23:2 0.0343517
10 *5:3 *25:2 0.020356
11 *83 1.46366
12 *184:I 0.0199283
13 *223:I 0.0566713
14 *5:3 0.688575
15 *5:5 0.0

*RES
1 *83 *5:3 8.54784
2 *184:I *5:3 9.48343
3 *184:I *5:5 0.001
4 *223:I *5:3 8.63417
5 *223:I *5:4 0.001
*END

*D_NET *6 4.44429

*CONN
*P *84 I *C 29.9600 4.0000
*I *185:I I *C 42.8400 21.0000
*I *224:I I *C 35.0000 21.5600

*CAP
1 *84 *83 0.299527
2 *6:3 *5:3 0.176048
3 *84 *85 0.222887
4 *84 *86 0.321443
5 *84 *9:5 0.398585
6 *84 *10:3 0.0017034
7 *6:3 *89 0.0178072
8 *84 *23:2 0.014928
9 *84 *24:2 0.0131719
10 *84 *25:2 0.0475749
11 *6:3 *25:2 0.00673737
12 *6:3 *63:2 0.0168159
13 *84 1.82825
14 *185:I 0.284274
15 *6:3 0.794531
16 *6:5 0.0

*RES
1 *84 *6:3 13.4455
2 *185:I *6:5 0.001
3 *185:I *6:3 14.4844
4 *224:I *6:4 0.001
5 *224:I *6:3 4.37925
*END

*D_NET *7 3.38472

*CONN
*P *85 I *C 32.2000 4.0000
*I *186:I I *C 42.2800 10.3600
*I *225:I I *C 37.2400 13.7200

*CAP
1 *85 *4:3 0.0198718
2 *7:3 *4:3 0.284638
3 *85 *84 0.222887
4 *85 *86 0.217194
5 *85 *87 0.176037
6 *85 *9:5 0.0488389
7 *85 *10:3 0.0660976
8 *7:3 *89 0.0640845
9 *7:3 *117 0.954849
10 *7:3 *63:2 0.016178
11 *85 0.93273
12 *186:I 0.0251338
13 *225:I 0.0799192
14 *7:3 0.276264
15 *7:5 0.0

*RES
1 *85 *7:3 6.80714
2 *186:I *7:3 9.60777
3 *186:I *7:5 0.001
4 *225:I *7:3 9.25585
5 *225:I *7:4 0.001
*END

*D_NET *8 9.22544

*CONN
*P *86 I *C 34.4400 4.0000
*I *187:I I *C 23.8000 52.9200
*I *226:I I *C 28.8400 52.9200

*CAP
1 *86 *4:3 0.119266
2 *86 *5:3 0.145978
3 *86 *84 0.321443
4 *86 *85 0.217194
5 *86 *87 0.233344
6 *86 *9:5 0.95586
7 *8:3 *9:5 0.050054
8 *8:3 *22:2 0.0208621
9 *8:3 *23:2 0.0326775
10 *8:3 *24:2 0.0172356
11 *86 *25:2 0.936403
12 *8:3 *103 0.0330861
13 *8:3 *25:2 1.06384
14 *8:3 *26:3 0.121489
15 *8:3 *105 0.0418904
16 *8:3 *106 0.0281793
17 *8:3 *37:2 0.000694115
18 *8:3 *38:2 0.0953656
19 *8:3 *41:3 1.01664
20 *86 2.04587
21 *187:I 0.226785
22 *226:I 0.0365147
23 *8:3 1.46478
24 *8:5 0.0

*RES
1 *86 *8:3 16.2567
2 *187:I *8:3 9.60777
3 *187:I *8:4 0.001
4 *226:I *8:3 8.46765
5 *226:I *8:5 0.001
*END

*D_NET *9 5.44412

*CONN
*P *87 I *C 36.6800 4.0000
*I *188:I I *C 35.5600 40.0400
*I *227:I I *C 36.6800 45.0800

*CAP
1 *87 *4:3 0.0172927
2 *9:5 *5:3 0.00147863
3 *9:5 *84 0.398585
4 *87 *85 0.176037
5 *9:5 *85 0.0488389
6 *87 *86 0.233344
7 *9:5 *86 0.95586
8 *9:5 *8:3 0.050054
9 *87 *10:3 0.21981
10 *9:5 *10:3 0.259679
11 *9:5 *25:2 0.0564169
12 *9:5 *105 0.0330252
13 *9:5 *117 0.00746011
14 *87 1.09017
15 *227:I 0.12134
16 *9:3 0.0741884
17 *9:5 1.70054
18 *9:6 0.0

*RES
1 *87 *9:5 8.25058
2 *188:I *9:5 4.23383
3 *188:I *9:4 0.001
4 *188:I *9:3 0.001
5 *227:I *9:5 5.62261
6 *227:I *9:6 0.001
*END

*D_NET *10 5.78325

*CONN
*P *88 I *C 38.9200 4.0000
*I *189:I I *C 42.8400 36.6800
*I *228:I I *C 38.9200 49.0000

*CAP
1 *10:3 *4:3 0.112638
2 *10:3 *5:3 0.102748
3 *10:3 *84 0.0017034
4 *10:3 *85 0.0660976
5 *10:3 *87 0.21981
6 *10:3 *9:5 0.259679
7 *10:3 *89 0.498289
8 *10:3 *105 0.0533268
9 *10:3 *106 0.036824
10 *10:3 *29:2 0.266414
11 *10:3 *63:2 0.0422342
12 *88 1.74691
13 *189:I 0.161349
14 *10:3 2.21522
15 *10:5 0.0

*RES
1 *88 *10:3 7.27143
2 *189:I *10:3 13.614
3 *189:I *10:5 0.001
4 *228:I *10:4 0.001
5 *228:I *10:3 6.97477
*END

*D_NET *11 5.45189

*CONN
*P *89 I *C 41.1600 4.0000
*I *190:I I *C 51.2400 32.2000
*I *229:I I *C 46.2000 33.3200

*CAP
1 *89 *6:3 0.0178072
2 *89 *7:3 0.0640845
3 *89 *10:3 0.498289
4 *89 *29:2 0.00637899
5 *89 *39:6 0.0592246
6 *11:4 *118 0.0439565
7 *11:4 *40:3 0.117129
8 *11:4 *135 0.0923362
9 *89 *63:2 0.280935
10 *89 *72:2 0.398598
11 *89 *73:2 0.0707356
12 *89 1.6983
13 *190:I 0.252749
14 *11:3 0.071154
15 *11:4 1.78021
16 *11:6 0.0

*RES
1 *89 *11:4 15.9323
2 *190:I *11:6 0.001
3 *190:I *11:3 0.001
4 *190:I *11:4 13.8627
5 *229:I *11:5 0.001
6 *229:I *11:4 4.50359
*END

*D_NET *12 5.73464

*CONN
*P *90 I *C 5.3200 4.0000
*I *173:I I *C 18.7600 36.6800
*I *212:I I *C 13.7200 37.2400

*CAP
1 *90 *81 0.549097
2 *12:3 *3:3 0.00878795
3 *90 *91 0.649009
4 *12:3 *93 0.107094
5 *90 *19:3 0.0425385
6 *90 *30:2 0.0134437
7 *12:3 *34:2 0.283789
8 *12:3 *35:2 0.0052052
9 *12:3 *36:2 0.105477
10 *12:3 *37:2 0.00754023
11 *90 *118 0.117281
12 *90 1.76848
13 *173:I 0.364183
14 *12:3 1.71272
15 *12:5 0.0

*RES
1 *90 *12:3 17.673
2 *173:I *12:3 13.8627
3 *173:I *12:5 0.001
4 *212:I *12:4 0.001
5 *212:I *12:3 4.37925
*END

*D_NET *13 7.93483

*CONN
*P *91 I *C 7.5600 4.0000
*I *174:I I *C 18.7600 52.3600
*I *213:I I *C 13.7200 52.9200

*CAP
1 *91 *81 0.0136301
2 *91 *90 0.649009
3 *91 *92 0.583548
4 *13:3 *15:3 0.00939718
5 *91 *19:3 0.0456315
6 *91 *21:3 0.00250648
7 *91 *30:2 0.3347
8 *91 *31:3 0.0623561
9 *91 *32:3 0.0863179
10 *13:3 *33:2 0.0463332
11 *13:3 *34:2 0.0456315
12 *13:3 *35:2 0.0400208
13 *13:3 *36:2 0.155322
14 *13:3 *37:2 0.0417691
15 *13:3 *119 1.1671
16 *91 2.21687
17 *174:I 0.266668
18 *213:I 0.0305006
19 *13:3 2.13752
20 *13:5 0.0

*RES
1 *91 *13:3 16.6297
2 *174:I *13:3 9.67993
3 *174:I *13:5 0.001
4 *213:I *13:3 8.46765
5 *213:I *13:4 0.001
*END

*D_NET *14 6.48023

*CONN
*P *92 I *C 9.8000 4.0000
*I *175:I I *C 19.8800 44.5200
*I *214:I I *C 14.8400 45.0800

*CAP
1 *14:3 *3:3 0.248991
2 *92 *91 0.583548
3 *92 *93 0.395816
4 *14:3 *15:3 0.0402791
5 *92 *19:3 0.0188188
6 *92 *32:3 0.0136235
7 *92 *34:2 0.279792
8 *92 *35:2 0.294868
9 *92 *36:2 0.00329635
10 *14:3 *36:2 0.0081589
11 *14:3 *37:2 0.119619
12 *92 *221:Z 0.00525073
13 *14:3 *38:2 0.000875756
14 *92 2.5867
15 *175:I 0.220012
16 *14:3 1.66058
17 *14:5 0.0

*RES
1 *92 *14:3 18.6676
2 *175:I *14:3 13.8627
3 *175:I *14:5 0.001
4 *214:I *14:4 0.001
5 *214:I *14:3 4.37925
*END

*D_NET *15 7.78028

*CONN
*P *93 I *C 12.0400 4.0000
*I *176:I I *C 22.6800 48.4400
*I *215:I I *C 17.0800 49.0000

*CAP
1 *93 *3:3 0.0157441
2 *93 *12:3 0.107094
3 *15:3 *13:3 0.00939718
4 *93 *92 0.395816
5 *15:3 *14:3 0.0402791
6 *93 *94 0.266656
7 *93 *19:3 0.00187428
8 *93 *32:3 0.0219359
9 *93 *33:2 0.0304074
10 *93 *34:2 0.385568
11 *93 *35:2 0.0538054
12 *15:3 *35:2 0.00343977
13 *93 *36:2 0.0521254
14 *15:3 *37:2 0.00304884
15 *93 *221:Z 1.38513
16 *15:3 *38:2 0.104436
17 *93 *117 0.00648622
18 *93 1.62323
19 *176:I 0.0274333
20 *215:I 0.0344951
21 *15:3 3.21189
22 *15:5 0.0

*RES
1 *93 *15:3 15.1376
2 *176:I *15:3 9.73211
3 *176:I *15:5 0.001
4 *215:I *15:3 8.63417
5 *215:I *15:4 0.001
*END

*D_NET *16 4.30686

*CONN
*P *94 I *C 14.2800 4.0000
*I *177:I I *C 22.6800 24.3600
*I *216:I I *C 19.8800 21.5600

*CAP
1 *94 *93 0.266656
2 *94 *17:3 0.227893
3 *16:5 *17:3 0.142257
4 *16:5 *96 0.234846
5 *16:5 *20:3 0.00386354
6 *94 *35:2 0.0157861
7 *16:5 *35:2 0.0467669
8 *94 *219:Z 0.130244
9 *16:5 *219:Z 0.0515767
10 *94 *221:Z 0.179192
11 *16:5 *38:2 0.0102795
12 *16:5 *118 0.00138306
13 *94 1.54987
14 *177:I 0.231904
15 *16:3 0.0740249
16 *16:5 1.14032
17 *16:6 0.0

*RES
1 *94 *16:5 13.6942
2 *177:I *16:6 0.001
3 *177:I *16:3 0.001
4 *177:I *16:5 14.0081
5 *216:I *16:5 4.23383
6 *216:I *16:4 0.001
*END

*D_NET *17 3.6498

*CONN
*P *95 I *C 16.5200 4.0000
*I *178:I I *C 19.3200 24.3600
*I *217:I I *C 17.0800 17.6400

*CAP
1 *17:3 *94 0.227893
2 *17:3 *16:5 0.142257
3 *17:3 *96 0.539839
4 *17:3 *35:2 0.0317056
5 *17:3 *219:Z 0.972432
6 *95 0.208136
7 *178:I 0.116043
8 *17:3 1.3431
9 *17:4 0.0683938
10 *17:6 0.0

*RES
1 *95 *17:3 3.02847
2 *178:I *17:3 14.7963
3 *178:I *17:6 0.001
4 *178:I *17:4 0.001
5 *217:I *17:3 4.23383
6 *217:I *17:5 0.001
*END

*D_NET *18 4.77886

*CONN
*P *96 I *C 18.7600 4.0000
*I *179:I I *C 28.8400 29.4000
*I *218:I I *C 23.8000 29.4000

*CAP
1 *96 *16:5 0.234846
2 *96 *17:3 0.539839
3 *96 *97 0.18762
4 *96 *19:3 0.0463072
5 *96 *22:2 0.0145076
6 *18:3 *23:2 0.048857
7 *18:3 *24:2 0.0168159
8 *96 *35:2 0.0247528
9 *96 *36:2 0.173291
10 *96 *219:Z 0.0210909
11 *96 *37:2 0.0719755
12 *96 *38:2 0.0476331
13 *18:3 *38:2 0.034183
14 *18:3 *118 0.398148
15 *96 1.05585
16 *179:I 0.022441
17 *218:I 0.0339575
18 *18:3 1.80675
19 *18:5 0.0

*RES
1 *96 *18:3 11.0346
2 *179:I *18:3 9.60777
3 *179:I *18:5 0.001
4 *218:I *18:3 8.46765
5 *218:I *18:4 0.001
*END

*D_NET *19 3.10429

*CONN
*P *97 I *C 21.0000 4.0000
*I *180:I I *C 4.2000 9.8000
*I *219:I I *C 8.1200 9.8000

*CAP
1 *19:3 *81 0.0364771
2 *19:3 *90 0.0425385
3 *19:3 *91 0.0456315
4 *19:3 *92 0.0188188
5 *19:3 *93 0.00187428
6 *97 *96 0.18762
7 *19:3 *96 0.0463072
8 *97 *20:3 0.198084
9 *19:3 *20:3 0.0165779
10 *19:3 *117 0.646055
11 *97 0.606149
12 *180:I 0.211406
13 *219:I 0.0186656
14 *19:3 1.02809
15 *19:5 0.0

*RES
1 *97 *19:3 8.29917
2 *180:I *19:3 9.3591
3 *180:I *19:4 0.001
4 *219:I *19:3 8.46765
5 *219:I *19:5 0.001
*END

*D_NET *20 3.33425

*CONN
*P *98 I *C 23.2400 4.0000
*I *182:I I *C 24.9200 24.3600
*I *221:I I *C 23.8000 13.7200

*CAP
1 *20:3 *82 0.218324
2 *20:3 *83 0.00689188
3 *20:3 *16:5 0.00386354
4 *20:3 *97 0.198084
5 *20:3 *19:3 0.0165779
6 *20:3 *22:2 1.01064
7 *20:3 *23:2 0.00963587
8 *20:3 *117 0.018737
9 *98 0.208136
10 *182:I 0.0573137
11 *20:3 1.51325
12 *20:4 0.0727956
13 *20:6 0.0

*RES
1 *98 *20:3 2.15812
2 *182:I *20:3 6.83489
3 *182:I *20:6 0.001
4 *182:I *20:4 0.001
5 *221:I *20:3 4.23383
6 *221:I *20:5 0.001
*END

*D_NET *21 2.53074

*CONN
*P *99 O *C 3.0800 61.0000
*I *211:Z O *C 4.7600 41.7200 *D gf180mcu_fd_sc_mcu7t5v0__clkbuf_8

*CAP
1 *21:3 *81 0.048334
2 *21:3 *3:3 0.0612921
3 *21:3 *91 0.00250648
4 *21:3 *30:2 0.556105
5 *99 0.491108
6 *21:3 1.37139
7 *21:4 0.0

*RES
1 *99 *21:3 4.67481
2 *211:Z *21:3 4.23383
3 *211:Z *21:2 0.001
4 *211:Z *21:4 0.538142
*END

*D_NET *22 6.31815

*CONN
*P *100 O *C 25.4800 61.0000
*I *222:Z O *C 25.4800 10.3600 *D gf180mcu_fd_sc_mcu7t5v0__clkbuf_8

*CAP
1 *22:2 *82 0.0332887
2 *22:2 *83 0.100709
3 *22:2 *8:3 0.0208621
4 *22:2 *96 0.0145076
5 *22:2 *20:3 1.01064
6 *100 *101 0.122747
7 *22:2 *23:2 0.662136
8 *100 *116 0.122747
9 *22:2 *38:2 0.488436
10 *100 0.208136
11 *222:Z 0.935644
12 *22:2 2.59829
13 *22:4 0.0

*RES
1 *100 *22:2 2.39347
2 *222:Z *22:3 0.001
3 *222:Z *22:2 13.105
4 *222:Z *22:4 0.320554
*END

*D_NET *23 4.72323

*CONN
*P *101 O *C 27.7200 61.0000
*I *223:Z O *C 27.7200 18.2000 *D gf180mcu_fd_sc_mcu7t5v0__clkbuf_8

*CAP
1 *23:2 *83 0.0343517
2 *23:2 *84 0.014928
3 *23:2 *8:3 0.0326775
4 *23:2 *18:3 0.048857
5 *23:2 *20:3 0.00963587
6 *101 *100 0.122747
7 *23:2 *22:2 0.662136
8 *101 *102 0.122747
9 *23:2 *24:2 0.589771
10 *101 0.208136
11 *223:Z 0.68757
12 *23:2 2.18968
13 *23:3 0.0

*RES
1 *101 *23:2 0.652764
2 *223:Z *23:2 13.105
3 *223:Z *23:3 0.001
*END

*D_NET *24 4.64421

*CONN
*P *102 O *C 29.9600 61.0000
*I *224:Z O *C 29.9600 21.0000 *D gf180mcu_fd_sc_mcu7t5v0__clkbuf_8

*CAP
1 *24:2 *84 0.0131719
2 *24:2 *8:3 0.0172356
3 *24:2 *18:3 0.0168159
4 *102 *101 0.122747
5 *24:2 *23:2 0.589771
6 *102 *103 0.122747
7 *24:2 *103 0.152455
8 *24:2 *25:2 0.0946674
9 *24:2 *105 0.0125228
10 *102 0.208136
11 *24:2 3.29394
12 *24:3 0.0

*RES
1 *102 *24:2 4.47165
2 *224:Z *24:2 8.6644
3 *224:Z *24:3 0.001
*END

*D_NET *25 6.90366

*CONN
*P *103 O *C 32.2000 61.0000
*I *225:Z O *C 32.7600 13.1600 *D gf180mcu_fd_sc_mcu7t5v0__clkbuf_8

*CAP
1 *25:2 *5:3 0.020356
2 *25:2 *84 0.0475749
3 *25:2 *6:3 0.00673737
4 *25:2 *86 0.936403
5 *103 *8:3 0.0330861
6 *25:2 *8:3 1.06384
7 *25:2 *9:5 0.0564169
8 *103 *102 0.122747
9 *103 *24:2 0.152455
10 *25:2 *24:2 0.0946674
11 *103 *26:3 0.264326
12 *25:2 *105 0.251834
13 *103 2.82315
14 *25:2 1.03006
15 *25:3 0.0

*RES
1 *103 *25:2 9.62716
2 *225:Z *25:3 0.001
3 *225:Z *25:2 5.49828
*END

*D_NET *26 1.36227

*CONN
*P *104 O *C 34.4400 61.0000
*I *226:Z O *C 34.4400 52.3600 *D gf180mcu_fd_sc_mcu7t5v0__clkbuf_8

*CAP
1 *26:3 *8:3 0.121489
2 *26:3 *103 0.264326
3 *26:3 *105 0.293697
4 *104 0.208136
5 *26:3 0.47462

*RES
1 *104 *26:3 1.93942
2 *226:Z *26:3 4.23383
3 *226:Z *26:2 0.001
*END

*D_NET *27 2.81961

*CONN
*P *105 O *C 36.6800 61.0000
*I *227:Z O *C 32.7600 44.5200 *D gf180mcu_fd_sc_mcu7t5v0__clkbuf_8

*CAP
1 *105 *8:3 0.0418904
2 *105 *9:5 0.0330252
3 *105 *10:3 0.0533268
4 *105 *24:2 0.0125228
5 *105 *25:2 0.251834
6 *105 *26:3 0.293697
7 *105 *106 0.365275
8 *105 0.429045
9 *227:Z 0.0586532
10 *27:2 1.28034
11 *27:3 0.0

*RES
1 *105 *27:2 8.45348
2 *227:Z *27:2 8.88285
3 *227:Z *27:3 0.001
*END

*D_NET *28 2.07168

*CONN
*P *106 O *C 38.9200 61.0000
*I *228:Z O *C 35.5600 49.5600 *D gf180mcu_fd_sc_mcu7t5v0__clkbuf_8

*CAP
1 *106 *8:3 0.0281793
2 *106 *10:3 0.036824
3 *106 *105 0.365275
4 *106 *107 0.122747
5 *106 *29:2 0.191059
6 *106 *41:3 0.0381334
7 *106 0.447921
8 *228:Z 0.0330774
9 *28:2 0.80846
10 *28:3 0.0

*RES
1 *106 *28:2 7.45879
2 *228:Z *28:2 8.63417
3 *228:Z *28:3 0.001
*END

*D_NET *29 3.18867

*CONN
*P *107 O *C 41.1600 61.0000
*I *229:Z O *C 41.1600 33.8800 *D gf180mcu_fd_sc_mcu7t5v0__clkbuf_8

*CAP
1 *29:2 *10:3 0.266414
2 *29:2 *89 0.00637899
3 *107 *106 0.122747
4 *29:2 *106 0.191059
5 *107 *123 0.122747
6 *29:2 *123 0.253727
7 *29:2 *63:2 0.03035
8 *107 0.208136
9 *29:2 1.98711
10 *29:3 0.0

*RES
1 *107 *29:2 1.61193
2 *229:Z *29:2 8.6644
3 *229:Z *29:3 0.001
*END

*D_NET *30 2.96966

*CONN
*P *108 O *C 5.3200 61.0000
*I *212:Z O *C 5.3200 36.6800 *D gf180mcu_fd_sc_mcu7t5v0__clkbuf_8

*CAP
1 *30:2 *81 0.0653238
2 *30:2 *90 0.0134437
3 *30:2 *91 0.3347
4 *30:2 *21:3 0.556105
5 *30:2 *31:3 0.275913
6 *108 0.208136
7 *30:2 1.51604
8 *30:3 0.0

*RES
1 *108 *30:2 0.990247
2 *212:Z *30:2 8.6644
3 *212:Z *30:3 0.001
*END

*D_NET *31 1.23891

*CONN
*P *109 O *C 7.5600 61.0000
*I *213:Z O *C 7.5600 53.4800 *D gf180mcu_fd_sc_mcu7t5v0__clkbuf_8

*CAP
1 *31:3 *91 0.0623561
2 *31:3 *30:2 0.275913
3 *31:3 *32:3 0.266009
4 *109 0.208136
5 *31:3 0.426497

*RES
1 *109 *31:3 1.69075
2 *213:Z *31:3 4.23383
3 *213:Z *31:2 0.001
*END

*D_NET *32 2.17242

*CONN
*P *110 O *C 9.8000 61.0000
*I *214:Z O *C 9.8000 44.5200 *D gf180mcu_fd_sc_mcu7t5v0__clkbuf_8

*CAP
1 *32:3 *91 0.0863179
2 *32:3 *92 0.0136235
3 *32:3 *93 0.0219359
4 *32:3 *31:3 0.266009
5 *32:3 *33:2 0.280208
6 *110 0.208136
7 *32:3 1.29619

*RES
1 *110 *32:3 3.68012
2 *214:Z *32:3 4.23383
3 *214:Z *32:2 0.001
*END

*D_NET *33 1.76116

*CONN
*P *111 O *C 12.0400 61.0000
*I *215:Z O *C 12.6000 49.5600 *D gf180mcu_fd_sc_mcu7t5v0__clkbuf_8

*CAP
1 *33:2 *13:3 0.0463332
2 *33:2 *93 0.0304074
3 *33:2 *32:3 0.280208
4 *33:2 *112 0.122747
5 *33:2 *34:2 0.217691
6 *33:2 *35:2 0.00388218
7 *33:2 *119 0.0128002
8 *111 0.208136
9 *215:Z 0.0741485
10 *33:2 0.764807
11 *33:3 0.0

*RES
1 *111 *33:2 1.66965
2 *215:Z *33:2 5.12527
3 *215:Z *33:3 0.001
*END

*D_NET *34 5.41309

*CONN
*P *112 O *C 14.2800 61.0000
*I *216:Z O *C 14.2800 21.0000 *D gf180mcu_fd_sc_mcu7t5v0__clkbuf_8

*CAP
1 *34:2 *3:3 0.0949562
2 *34:2 *12:3 0.283789
3 *34:2 *13:3 0.0456315
4 *34:2 *92 0.279792
5 *34:2 *93 0.385568
6 *112 *33:2 0.122747
7 *34:2 *33:2 0.217691
8 *112 *113 0.122747
9 *34:2 *35:2 1.13217
10 *34:2 *36:2 0.0174513
11 *34:2 *219:Z 0.0221798
12 *34:2 *221:Z 0.240943
13 *112 0.208136
14 *34:2 2.23929
15 *34:3 0.0

*RES
1 *112 *34:2 4.47165
2 *216:Z *34:2 8.6644
3 *216:Z *34:3 0.001
*END

*D_NET *35 6.20294

*CONN
*P *113 O *C 16.5200 61.0000
*I *217:Z O *C 13.7200 18.2000 *D gf180mcu_fd_sc_mcu7t5v0__clkbuf_8

*CAP
1 *35:2 *12:3 0.0052052
2 *35:2 *13:3 0.0400208
3 *35:2 *92 0.294868
4 *35:2 *93 0.0538054
5 *35:2 *15:3 0.00343977
6 *35:2 *94 0.0157861
7 *35:2 *16:5 0.0467669
8 *35:2 *17:3 0.0317056
9 *35:2 *96 0.0247528
10 *35:2 *33:2 0.00388218
11 *113 *112 0.122747
12 *35:2 *34:2 1.13217
13 *113 *114 0.122747
14 *35:2 *36:2 0.401551
15 *35:2 *219:Z 0.72006
16 *35:2 *221:Z 0.0963596
17 *113 0.208136
18 *217:Z 0.868587
19 *35:2 2.01035
20 *35:3 0.0

*RES
1 *113 *35:2 2.04266
2 *217:Z *35:2 12.2846
3 *217:Z *35:3 0.001
*END

*D_NET *36 3.9543

*CONN
*P *114 O *C 18.7600 61.0000
*I *218:Z O *C 18.2000 28.8400 *D gf180mcu_fd_sc_mcu7t5v0__clkbuf_8

*CAP
1 *36:2 *3:3 0.0944556
2 *36:2 *12:3 0.105477
3 *36:2 *13:3 0.155322
4 *36:2 *92 0.00329635
5 *36:2 *14:3 0.0081589
6 *36:2 *93 0.0521254
7 *36:2 *96 0.173291
8 *36:2 *34:2 0.0174513
9 *114 *113 0.122747
10 *36:2 *35:2 0.401551
11 *114 *115 0.122747
12 *36:2 *37:2 0.441163
13 *36:2 *119 0.00556205
14 *114 0.208136
15 *218:Z 0.273405
16 *36:2 1.76941
17 *36:3 0.0

*RES
1 *114 *36:2 1.66965
2 *218:Z *36:3 0.001
3 *218:Z *36:2 9.7257
*END

*D_NET *37 7.71635

*CONN
*P *115 O *C 21.0000 61.0000
*I *219:Z O *C 15.9600 10.3600 *D gf180mcu_fd_sc_mcu7t5v0__clkbuf_8

*CAP
1 *37:2 *3:3 0.0160732
2 *37:2 *8:3 0.000694115
3 *37:2 *12:3 0.00754023
4 *37:2 *13:3 0.0417691
5 *37:2 *14:3 0.119619
6 *37:2 *15:3 0.00304884
7 *219:Z *94 0.130244
8 *219:Z *16:5 0.0515767
9 *219:Z *17:3 0.972432
10 *219:Z *96 0.0210909
11 *37:2 *96 0.0719755
12 *219:Z *34:2 0.0221798
13 *219:Z *35:2 0.72006
14 *115 *114 0.122747
15 *37:2 *36:2 0.441163
16 *115 *116 0.122747
17 *219:Z *221:Z 0.0106569
18 *219:Z *38:2 0.0991963
19 *37:2 *38:2 0.254683
20 *219:Z *118 0.0149284
21 *115 0.208136
22 *219:Z 0.627385
23 *37:2 3.63641
24 *37:3 0.0

*RES
1 *115 *37:2 1.17231
2 *219:Z *37:2 23.8728
3 *219:Z *37:3 0.001
*END

*D_NET *38 8.41523

*CONN
*P *116 O *C 23.2400 61.0000
*I *221:Z O *C 13.1600 13.1600 *D gf180mcu_fd_sc_mcu7t5v0__clkbuf_8

*CAP
1 *38:2 *8:3 0.0953656
2 *221:Z *92 0.00525073
3 *38:2 *14:3 0.000875756
4 *221:Z *93 1.38513
5 *38:2 *15:3 0.104436
6 *221:Z *94 0.179192
7 *38:2 *16:5 0.0102795
8 *38:2 *96 0.0476331
9 *38:2 *18:3 0.034183
10 *116 *100 0.122747
11 *38:2 *22:2 0.488436
12 *221:Z *34:2 0.240943
13 *221:Z *35:2 0.0963596
14 *116 *115 0.122747
15 *221:Z *219:Z 0.0106569
16 *38:2 *219:Z 0.0991963
17 *38:2 *37:2 0.254683
18 *38:2 *118 1.00613
19 *116 0.208136
20 *221:Z 1.00699
21 *38:2 2.89586
22 *38:3 0.0

*RES
1 *116 *38:2 2.97962
2 *221:Z *38:2 22.6872
3 *221:Z *38:3 0.001
*END

*D_NET *39 6.58657

*CONN
*P *117 I *C 4.0000 10.9200
*I *168:I I *C 42.2800 16.5200
*I *207:I I *C 43.4000 13.7200

*CAP
1 *117 *4:3 0.182597
2 *117 *7:3 0.954849
3 *117 *9:5 0.00746011
4 *39:6 *89 0.0592246
5 *117 *93 0.00648622
6 *117 *19:3 0.646055
7 *117 *20:3 0.018737
8 *117 *63:2 0.00258479
9 *39:6 *63:2 0.652132
10 *39:6 *150 0.00998583
11 *117 1.91101
12 *168:I 0.0171932
13 *39:3 0.099171
14 *39:6 2.01908

*RES
1 *117 *39:6 13.6456
2 *168:I *39:6 5.07309
3 *168:I *39:4 0.001
4 *168:I *39:3 0.001
5 *207:I *39:6 4.23383
6 *207:I *39:5 0.001
*END

*D_NET *40 9.32241

*CONN
*P *118 I *C 4.0000 32.2000
*I *169:I I *C 63.0000 26.0400
*I *208:I I *C 66.3600 29.4000

*CAP
1 *118 *81 0.121729
2 *118 *11:4 0.0439565
3 *40:3 *11:4 0.117129
4 *118 *90 0.117281
5 *118 *16:5 0.00138306
6 *118 *18:3 0.398148
7 *118 *219:Z 0.0149284
8 *118 *38:2 1.00613
9 *40:3 *46:3 0.219055
10 *40:3 *52:3 0.0260117
11 *40:3 *57:3 0.124409
12 *40:3 *58:3 0.00293686
13 *40:3 *139 0.0476079
14 *40:3 *140 0.106335
15 *40:3 *62:4 0.0219951
16 *40:3 *65:2 0.0258664
17 *40:3 *70:2 0.893224
18 *118 3.77525
19 *169:I 0.10941
20 *208:I 0.0713465
21 *40:3 2.07827
22 *40:5 0.0

*RES
1 *118 *40:3 14.4829
2 *169:I *40:4 0.001
3 *169:I *40:3 9.00718
4 *208:I *40:5 0.001
5 *208:I *40:3 9.51008
*END

*D_NET *41 8.58486

*CONN
*P *119 I *C 4.0000 53.4800
*I *171:I I *C 61.8800 53.4800
*I *210:I I *C 63.0000 49.0000

*CAP
1 *41:3 *8:3 1.01664
2 *119 *13:3 1.1671
3 *41:3 *106 0.0381334
4 *119 *33:2 0.0128002
5 *119 *36:2 0.00556205
6 *41:3 *55:3 0.0695176
7 *41:3 *135 0.0281211
8 *41:3 *138 0.0103196
9 *41:3 *139 0.480543
10 *41:3 *140 0.106292
11 *119 3.74254
12 *210:I 0.0611856
13 *41:3 1.84611
14 *41:5 0.0

*RES
1 *119 *41:3 17.1059
2 *171:I *41:3 4.23383
3 *171:I *41:4 0.001
4 *210:I *41:5 0.001
5 *210:I *41:3 5.46719
*END

*D_NET *42 4.95516

*CONN
*P *120 O *C 81.0000 10.9200
*I *207:Z O *C 55.1600 13.1600 *D gf180mcu_fd_sc_mcu7t5v0__clkbuf_8

*CAP
1 *42:2 *46:3 1.05994
2 *42:2 *60:6 0.0321683
3 *42:2 *64:2 1.02845
4 *42:2 *67:2 0.00573516
5 *42:2 *148 0.00144951
6 *42:2 *154 0.238766
7 *42:2 *155 0.0786262
8 *42:2 *78:2 0.0149132
9 *120 0.603682
10 *207:Z 0.120248
11 *42:2 1.77117
12 *42:3 0.0

*RES
1 *120 *42:2 1.32773
2 *207:Z *42:2 13.3745
3 *207:Z *42:3 0.001
*END

*D_NET *43 1.82959

*CONN
*P *121 O *C 81.0000 32.2000
*I *208:Z O *C 75.3200 29.9600 *D gf180mcu_fd_sc_mcu7t5v0__clkbuf_8

*CAP
1 *43:2 *48:4 0.311633
2 *43:2 *128 0.0184911
3 *43:2 *50:5 0.0289692
4 *43:2 *52:3 0.0377815
5 *43:2 *67:2 0.000504862
6 *43:2 *69:2 0.0582664
7 *43:2 *70:2 0.00647322
8 *43:2 *206:Z 0.263836
9 *121 0.604325
10 *208:Z 0.0641648
11 *43:2 0.435146
12 *43:3 0.0

*RES
1 *121 *43:2 1.28221
2 *208:Z *43:2 9.00718
3 *208:Z *43:3 0.001
*END

*D_NET *44 2.20241

*CONN
*P *122 O *C 81.0000 53.4800
*I *210:Z O *C 71.9600 49.5600 *D gf180mcu_fd_sc_mcu7t5v0__clkbuf_8

*CAP
1 *44:2 *126 0.0358384
2 *44:2 *49:4 0.017545
3 *44:2 *128 0.0212978
4 *44:2 *51:3 0.00075486
5 *44:2 *67:2 0.308102
6 *122 0.620568
7 *210:Z 0.169049
8 *44:2 1.02926
9 *44:3 0.0

*RES
1 *122 *44:2 2.02823
2 *210:Z *44:2 9.38019
3 *210:Z *44:3 0.001
*END

*D_NET *45 3.99929

*CONN
*P *123 I *C 43.4000 61.0000
*I *159:I I *C 53.4800 41.1600
*I *198:I I *C 48.4400 41.1600

*CAP
1 *123 *107 0.122747
2 *123 *29:2 0.253727
3 *123 *132 0.23091
4 *45:3 *56:3 0.00984306
5 *45:3 *135 0.00288185
6 *45:3 *58:3 0.00201586
7 *123 *63:2 0.211301
8 *123 *72:2 0.164231
9 *123 *73:2 0.0905466
10 *123 *74:2 0.0365361
11 *123 0.720676
12 *159:I 0.030448
13 *198:I 0.0183976
14 *45:3 2.10503
15 *45:5 0.0

*RES
1 *123 *45:3 9.80008
2 *159:I *45:3 9.60777
3 *159:I *45:5 0.001
4 *198:I *45:3 8.46765
5 *198:I *45:4 0.001
*END

*D_NET *46 9.25987

*CONN
*P *124 I *C 65.8000 61.0000
*I *160:I I *C 77.5600 10.3600
*I *199:I I *C 58.5200 9.8000

*CAP
1 *46:3 *40:3 0.219055
2 *46:3 *42:2 1.05994
3 *124 *125 0.477165
4 *46:3 *52:3 0.385291
5 *124 *59:4 0.00220427
6 *46:3 *59:4 0.094186
7 *46:3 *60:6 0.0616636
8 *124 *140 0.751852
9 *46:3 *140 0.108278
10 *46:3 *142 0.025255
11 *46:3 *64:2 0.0658497
12 *124 *65:2 0.0728446
13 *46:3 *65:2 0.218234
14 *46:3 *147 0.193569
15 *46:3 *148 0.0663599
16 *46:3 *155 0.0873147
17 *46:3 *157 0.0492182
18 *46:3 *80:2 0.162886
19 *124 2.50614
20 *160:I 0.48145
21 *199:I 0.748729
22 *46:3 1.42238
23 *46:5 0.0

*RES
1 *124 *46:3 10.7462
2 *160:I *46:5 0.001
3 *160:I *46:3 15.8942
4 *199:I *46:4 0.001
5 *199:I *46:3 15.045
*END

*D_NET *47 4.50392

*CONN
*P *125 I *C 68.0400 61.0000
*I *161:I I *C 77.5600 38.3600
*I *200:I I *C 72.5200 37.2400

*CAP
1 *125 *124 0.477165
2 *125 *126 0.431629
3 *125 *128 0.00128894
4 *47:4 *130 0.0330847
5 *125 *65:2 0.0102994
6 *125 *67:2 0.115094
7 *47:4 *69:2 0.121234
8 *125 *206:Z 0.0407403
9 *125 1.80789