*SPEF "IEEE 1481-1999"
*DESIGN "mprj_io_buffer"
*DATE "Sun Dec  4 06:08:44 2022"
*VENDOR "Synopsys Inc."
*PROGRAM "StarRC"
*VERSION "T-2022.03-SP3"
*DESIGN_FLOW "PIN_CAP NONE" "NAME_SCOPE LOCAL"
*DIVIDER /
*DELIMITER :
*BUS_DELIMITER []
*T_UNIT 1.0 NS
*C_UNIT 1.0 FF
*R_UNIT 1.0 OHM
*L_UNIT 1.0 HENRY

// COMMENTS

// CORNER_NAME 
// OPERATING_TEMPERATURE 125
// GLOBAL_TEMPERATURE 25
// TCAD_GRD_FILE /home/passant/caravel-gf180mcu/scripts/gf180-tech/gf180mcu_1p5m_1tm_9k_sp_smim_OPTB_wst.nxtgrd
//   TCAD_TIME_STAMP Tue Dec 26 17:57:55 2017
//   TCADGRD_VERSION 75
// galaxy_comments_begin
//   local_nodeid
// galaxy_comments_end

*NAME_MAP
*81 mgmt_gpio_in[0]
*82 mgmt_gpio_in[10]
*83 mgmt_gpio_in[11]
*84 mgmt_gpio_in[12]
*85 mgmt_gpio_in[13]
*86 mgmt_gpio_in[14]
*87 mgmt_gpio_in[15]
*88 mgmt_gpio_in[16]
*89 mgmt_gpio_in[17]
*90 mgmt_gpio_in[1]
*91 mgmt_gpio_in[2]
*92 mgmt_gpio_in[3]
*93 mgmt_gpio_in[4]
*94 mgmt_gpio_in[5]
*95 mgmt_gpio_in[6]
*96 mgmt_gpio_in[7]
*97 mgmt_gpio_in[8]
*98 mgmt_gpio_in[9]
*99 mgmt_gpio_in_buf[0]
*100 mgmt_gpio_in_buf[10]
*101 mgmt_gpio_in_buf[11]
*102 mgmt_gpio_in_buf[12]
*103 mgmt_gpio_in_buf[13]
*104 mgmt_gpio_in_buf[14]
*105 mgmt_gpio_in_buf[15]
*106 mgmt_gpio_in_buf[16]
*107 mgmt_gpio_in_buf[17]
*108 mgmt_gpio_in_buf[1]
*109 mgmt_gpio_in_buf[2]
*110 mgmt_gpio_in_buf[3]
*111 mgmt_gpio_in_buf[4]
*112 mgmt_gpio_in_buf[5]
*113 mgmt_gpio_in_buf[6]
*114 mgmt_gpio_in_buf[7]
*115 mgmt_gpio_in_buf[8]
*116 mgmt_gpio_in_buf[9]
*117 mgmt_gpio_oeb[0]
*118 mgmt_gpio_oeb[1]
*119 mgmt_gpio_oeb[2]
*120 mgmt_gpio_oeb_buf[0]
*121 mgmt_gpio_oeb_buf[1]
*122 mgmt_gpio_oeb_buf[2]
*123 mgmt_gpio_out[0]
*124 mgmt_gpio_out[10]
*125 mgmt_gpio_out[11]
*126 mgmt_gpio_out[12]
*127 mgmt_gpio_out[13]
*128 mgmt_gpio_out[14]
*129 mgmt_gpio_out[15]
*130 mgmt_gpio_out[16]
*131 mgmt_gpio_out[17]
*132 mgmt_gpio_out[1]
*133 mgmt_gpio_out[2]
*134 mgmt_gpio_out[3]
*135 mgmt_gpio_out[4]
*136 mgmt_gpio_out[5]
*137 mgmt_gpio_out[6]
*138 mgmt_gpio_out[7]
*139 mgmt_gpio_out[8]
*140 mgmt_gpio_out[9]
*141 mgmt_gpio_out_buf[0]
*142 mgmt_gpio_out_buf[10]
*143 mgmt_gpio_out_buf[11]
*144 mgmt_gpio_out_buf[12]
*145 mgmt_gpio_out_buf[13]
*146 mgmt_gpio_out_buf[14]
*147 mgmt_gpio_out_buf[15]
*148 mgmt_gpio_out_buf[16]
*149 mgmt_gpio_out_buf[17]
*150 mgmt_gpio_out_buf[1]
*151 mgmt_gpio_out_buf[2]
*152 mgmt_gpio_out_buf[3]
*153 mgmt_gpio_out_buf[4]
*154 mgmt_gpio_out_buf[5]
*155 mgmt_gpio_out_buf[6]
*156 mgmt_gpio_out_buf[7]
*157 mgmt_gpio_out_buf[8]
*158 mgmt_gpio_out_buf[9]
*159 ANTENNA_BUF\[0\]_I
*160 ANTENNA_BUF\[10\]_I
*161 ANTENNA_BUF\[11\]_I
*162 ANTENNA_BUF\[12\]_I
*163 ANTENNA_BUF\[13\]_I
*164 ANTENNA_BUF\[14\]_I
*165 ANTENNA_BUF\[15\]_I
*166 ANTENNA_BUF\[16\]_I
*167 ANTENNA_BUF\[17\]_I
*168 ANTENNA_BUF\[18\]_I
*169 ANTENNA_BUF\[19\]_I
*170 ANTENNA_BUF\[1\]_I
*171 ANTENNA_BUF\[20\]_I
*172 ANTENNA_BUF\[21\]_I
*173 ANTENNA_BUF\[22\]_I
*174 ANTENNA_BUF\[23\]_I
*175 ANTENNA_BUF\[24\]_I
*176 ANTENNA_BUF\[25\]_I
*177 ANTENNA_BUF\[26\]_I
*178 ANTENNA_BUF\[27\]_I
*179 ANTENNA_BUF\[28\]_I
*180 ANTENNA_BUF\[29\]_I
*181 ANTENNA_BUF\[2\]_I
*182 ANTENNA_BUF\[30\]_I
*183 ANTENNA_BUF\[31\]_I
*184 ANTENNA_BUF\[32\]_I
*185 ANTENNA_BUF\[33\]_I
*186 ANTENNA_BUF\[34\]_I
*187 ANTENNA_BUF\[35\]_I
*188 ANTENNA_BUF\[36\]_I
*189 ANTENNA_BUF\[37\]_I
*190 ANTENNA_BUF\[38\]_I
*191 ANTENNA_BUF\[3\]_I
*192 ANTENNA_BUF\[4\]_I
*193 ANTENNA_BUF\[5\]_I
*194 ANTENNA_BUF\[6\]_I
*195 ANTENNA_BUF\[7\]_I
*196 ANTENNA_BUF\[8\]_I
*197 ANTENNA_BUF\[9\]_I
*198 BUF[0]
*199 BUF[10]
*200 BUF[11]
*201 BUF[12]
*202 BUF[13]
*203 BUF[14]
*204 BUF[15]
*205 BUF[16]
*206 BUF[17]
*207 BUF[18]
*208 BUF[19]
*209 BUF[1]
*210 BUF[20]
*211 BUF[21]
*212 BUF[22]
*213 BUF[23]
*214 BUF[24]
*215 BUF[25]
*216 BUF[26]
*217 BUF[27]
*218 BUF[28]
*219 BUF[29]
*220 BUF[2]
*221 BUF[30]
*222 BUF[31]
*223 BUF[32]
*224 BUF[33]
*225 BUF[34]
*226 BUF[35]
*227 BUF[36]
*228 BUF[37]
*229 BUF[38]
*230 BUF[3]
*231 BUF[4]
*232 BUF[5]
*233 BUF[6]
*234 BUF[7]
*235 BUF[8]
*236 BUF[9]
*3 mgmt_gpio_in[0]
*4 mgmt_gpio_in[10]
*5 mgmt_gpio_in[11]
*6 mgmt_gpio_in[12]
*7 mgmt_gpio_in[13]
*8 mgmt_gpio_in[14]
*9 mgmt_gpio_in[15]
*10 mgmt_gpio_in[16]
*11 mgmt_gpio_in[17]
*12 mgmt_gpio_in[1]
*13 mgmt_gpio_in[2]
*14 mgmt_gpio_in[3]
*15 mgmt_gpio_in[4]
*16 mgmt_gpio_in[5]
*17 mgmt_gpio_in[6]
*18 mgmt_gpio_in[7]
*19 mgmt_gpio_in[8]
*20 mgmt_gpio_in[9]
*21 mgmt_gpio_in_buf[0]
*22 mgmt_gpio_in_buf[10]
*23 mgmt_gpio_in_buf[11]
*24 mgmt_gpio_in_buf[12]
*25 mgmt_gpio_in_buf[13]
*26 mgmt_gpio_in_buf[14]
*27 mgmt_gpio_in_buf[15]
*28 mgmt_gpio_in_buf[16]
*29 mgmt_gpio_in_buf[17]
*30 mgmt_gpio_in_buf[1]
*31 mgmt_gpio_in_buf[2]
*32 mgmt_gpio_in_buf[3]
*33 mgmt_gpio_in_buf[4]
*34 mgmt_gpio_in_buf[5]
*35 mgmt_gpio_in_buf[6]
*36 mgmt_gpio_in_buf[7]
*37 mgmt_gpio_in_buf[8]
*38 mgmt_gpio_in_buf[9]
*39 mgmt_gpio_oeb[0]
*40 mgmt_gpio_oeb[1]
*41 mgmt_gpio_oeb[2]
*42 mgmt_gpio_oeb_buf[0]
*43 mgmt_gpio_oeb_buf[1]
*44 mgmt_gpio_oeb_buf[2]
*45 mgmt_gpio_out[0]
*46 mgmt_gpio_out[10]
*47 mgmt_gpio_out[11]
*48 mgmt_gpio_out[12]
*49 mgmt_gpio_out[13]
*50 mgmt_gpio_out[14]
*51 mgmt_gpio_out[15]
*52 mgmt_gpio_out[16]
*53 mgmt_gpio_out[17]
*54 mgmt_gpio_out[1]
*55 mgmt_gpio_out[2]
*56 mgmt_gpio_out[3]
*57 mgmt_gpio_out[4]
*58 mgmt_gpio_out[5]
*59 mgmt_gpio_out[6]
*60 mgmt_gpio_out[7]
*61 mgmt_gpio_out[8]
*62 mgmt_gpio_out[9]
*63 mgmt_gpio_out_buf[0]
*64 mgmt_gpio_out_buf[10]
*65 mgmt_gpio_out_buf[11]
*66 mgmt_gpio_out_buf[12]
*67 mgmt_gpio_out_buf[13]
*68 mgmt_gpio_out_buf[14]
*69 mgmt_gpio_out_buf[15]
*70 mgmt_gpio_out_buf[16]
*71 mgmt_gpio_out_buf[17]
*72 mgmt_gpio_out_buf[1]
*73 mgmt_gpio_out_buf[2]
*74 mgmt_gpio_out_buf[3]
*75 mgmt_gpio_out_buf[4]
*76 mgmt_gpio_out_buf[5]
*77 mgmt_gpio_out_buf[6]
*78 mgmt_gpio_out_buf[7]
*79 mgmt_gpio_out_buf[8]
*80 mgmt_gpio_out_buf[9]

*PORTS

*81 I
*82 I
*83 I
*84 I
*85 I
*86 I
*87 I
*88 I
*89 I
*90 I
*91 I
*92 I
*93 I
*94 I
*95 I
*96 I
*97 I
*98 I
*99 O
*100 O
*101 O
*102 O
*103 O
*104 O
*105 O
*106 O
*107 O
*108 O
*109 O
*110 O
*111 O
*112 O
*113 O
*114 O
*115 O
*116 O
*117 I
*118 I
*119 I
*120 O
*121 O
*122 O
*123 I
*124 I
*125 I
*126 I
*127 I
*128 I
*129 I
*130 I
*131 I
*132 I
*133 I
*134 I
*135 I
*136 I
*137 I
*138 I
*139 I
*140 I
*141 O
*142 O
*143 O
*144 O
*145 O
*146 O
*147 O
*148 O
*149 O
*150 O
*151 O
*152 O
*153 O
*154 O
*155 O
*156 O
*157 O
*158 O

*D_NET *3 7.20639

*CONN
*P *81 I *C 3.0800 4.0000
*I *172:I I *C 18.7600 41.1600
*I *211:I I *C 13.7200 41.1600

*CAP
1 *81 *90 0.575185
2 *3:3 *12:3 0.00831885
3 *81 *91 0.0138668
4 *3:3 *14:3 0.277585
5 *3:3 *93 0.0160238
6 *81 *19:3 0.0383923
7 *81 *21:3 0.0556046
8 *3:3 *21:3 0.0787442
9 *81 *30:2 0.0677209
10 *3:3 *34:2 0.127786
11 *3:3 *36:2 0.121611
12 *3:3 *37:2 0.0151866
13 *81 *118 0.160778
14 *81 3.07238
15 *172:I 0.0159407
16 *211:I 0.0340112
17 *3:3 2.52726
18 *3:5 0.0

*RES
1 *81 *3:3 41.4433
2 *172:I *3:3 36.3221
3 *172:I *3:5 0.001
4 *211:I *3:3 33.69
5 *211:I *3:4 0.001
*END

*D_NET *4 3.38914

*CONN
*P *82 I *C 25.4800 4.0000
*I *183:I I *C 38.3600 9.2400
*I *222:I I *C 33.8800 9.8000

*CAP
1 *82 *83 0.229464
2 *4:3 *85 0.0175295
3 *4:3 *7:3 0.320475
4 *4:3 *86 0.159926
5 *4:3 *87 0.0164471
6 *4:3 *10:3 0.145145
7 *82 *20:3 0.235071
8 *82 *22:2 0.0357184
9 *4:3 *117 0.193752
10 *82 1.00788
11 *183:I 0.0281221
12 *222:I 0.0828255
13 *4:3 0.91678
14 *4:5 0.0

*RES
1 *82 *4:3 23.9339
2 *183:I *4:3 36.035
3 *183:I *4:5 0.001
4 *222:I *4:3 34.0744
5 *222:I *4:4 0.001
*END

*D_NET *5 4.00005

*CONN
*P *83 I *C 27.7200 4.0000
*I *184:I I *C 38.3600 17.0800
*I *223:I I *C 33.8800 17.6400

*CAP
1 *83 *82 0.229464
2 *83 *84 0.311798
3 *5:3 *6:3 0.188639
4 *5:3 *86 0.196699
5 *5:3 *9:5 0.000986958
6 *5:3 *10:3 0.132448
7 *83 *20:3 0.0065516
8 *83 *22:2 0.103275
9 *83 *23:2 0.0370593
10 *5:3 *25:2 0.0206351
11 *83 1.78667
12 *184:I 0.0189336
13 *223:I 0.0708857
14 *5:3 0.896008
15 *5:5 0.0

*RES
1 *83 *5:3 26.8043
2 *184:I *5:3 36.035
3 *184:I *5:5 0.001
4 *223:I *5:3 34.0744
5 *223:I *5:4 0.001
*END

*D_NET *6 5.44716

*CONN
*P *84 I *C 29.9600 4.0000
*I *185:I I *C 42.8400 21.0000
*I *224:I I *C 35.0000 21.5600

*CAP
1 *84 *83 0.311798
2 *6:3 *5:3 0.188639
3 *84 *85 0.23607
4 *84 *86 0.429619
5 *84 *9:5 0.532052
6 *84 *10:3 0.00160936
7 *6:3 *89 0.0155641
8 *84 *23:2 0.0153321
9 *84 *24:2 0.0127559
10 *84 *25:2 0.0403837
11 *6:3 *25:2 0.0105866
12 *6:3 *63:2 0.0175006
13 *84 2.33719
14 *185:I 0.344544
15 *6:3 0.953524
16 *6:5 0.0

*RES
1 *84 *6:3 45.1819
2 *185:I *6:5 0.001
3 *185:I *6:3 54.651
4 *224:I *6:4 0.001
5 *224:I *6:3 17.1807
*END

*D_NET *7 4.12742

*CONN
*P *85 I *C 32.2000 4.0000
*I *186:I I *C 42.2800 10.3600
*I *225:I I *C 37.2400 13.7200

*CAP
1 *85 *4:3 0.0175295
2 *7:3 *4:3 0.320475
3 *85 *84 0.23607
4 *85 *86 0.233153
5 *85 *87 0.230371
6 *85 *9:5 0.052394
7 *85 *10:3 0.068318
8 *7:3 *89 0.0701545
9 *7:3 *117 1.27953
10 *7:3 *63:2 0.0165083
11 *85 1.02682
12 *186:I 0.0244525
13 *225:I 0.103228
14 *7:3 0.44841
15 *7:5 0.0

*RES
1 *85 *7:3 22.7857
2 *186:I *7:3 36.3221
3 *186:I *7:5 0.001
4 *225:I *7:3 35.5096
5 *225:I *7:4 0.001
*END

*D_NET *8 11.467

*CONN
*P *86 I *C 34.4400 4.0000
*I *187:I I *C 23.8000 52.9200
*I *226:I I *C 28.8400 52.9200

*CAP
1 *86 *4:3 0.159926
2 *86 *5:3 0.196699
3 *86 *84 0.429619
4 *86 *85 0.233153
5 *86 *87 0.247931
6 *86 *9:5 1.133
7 *8:3 *22:2 0.0197614
8 *8:3 *23:2 0.033203
9 *86 *24:2 0.000899151
10 *8:3 *24:2 0.0160238
11 *86 *103 0.00788129
12 *86 *25:2 2.41702
13 *8:3 *103 0.0283896
14 *86 *26:3 0.159707
15 *86 *105 0.0412608
16 *86 *106 0.0265363
17 *8:3 *37:2 0.000505028
18 *8:3 *38:2 0.124065
19 *8:3 *119 1.36171
20 *86 1.53135
21 *187:I 0.179074
22 *226:I 0.0423986
23 *8:3 3.07685
24 *8:5 0.0

*RES
1 *86 *8:3 44.6008
2 *187:I *8:3 36.3221
3 *187:I *8:4 0.001
4 *226:I *8:3 33.69
5 *226:I *8:5 0.001
*END

*D_NET *9 6.61497

*CONN
*P *87 I *C 36.6800 4.0000
*I *188:I I *C 35.5600 40.0400
*I *227:I I *C 36.6800 45.0800

*CAP
1 *87 *4:3 0.0164471
2 *9:5 *5:3 0.000986958
3 *9:5 *84 0.532052
4 *87 *85 0.230371
5 *9:5 *85 0.052394
6 *87 *86 0.247931
7 *9:5 *86 1.133
8 *87 *10:3 0.237924
9 *9:5 *10:3 0.266714
10 *9:5 *25:2 0.0500997
11 *9:5 *105 0.0353842
12 *9:5 *117 0.00860059
13 *87 1.35511
14 *227:I 0.0925487
15 *9:3 0.0923809
16 *9:5 2.26302
17 *9:6 0.0

*RES
1 *87 *9:5 19.0472
2 *188:I *9:5 16.845
3 *188:I *9:4 0.001
4 *188:I *9:3 0.001
5 *227:I *9:5 20.0511
6 *227:I *9:6 0.001
*END

*D_NET *10 7.00386

*CONN
*P *88 I *C 38.9200 4.0000
*I *189:I I *C 42.8400 36.6800
*I *228:I I *C 38.9200 49.0000

*CAP
1 *10:3 *4:3 0.145145
2 *10:3 *5:3 0.132448
3 *10:3 *84 0.00160936
4 *10:3 *85 0.068318
5 *10:3 *87 0.237924
6 *10:3 *9:5 0.266714
7 *10:3 *89 0.518702
8 *10:3 *105 0.0536734
9 *10:3 *106 0.0395966
10 *10:3 *29:2 0.269862
11 *10:3 *63:2 0.0441574
12 *88 2.10972
13 *189:I 0.192888
14 *10:3 2.9231
15 *10:5 0.0

*RES
1 *88 *10:3 16.7867
2 *189:I *10:3 52.6417
3 *189:I *10:5 0.001
4 *228:I *10:4 0.001
5 *228:I *10:3 23.1727
*END

*D_NET *11 6.63482

*CONN
*P *89 I *C 41.1600 4.0000
*I *190:I I *C 51.2400 32.2000
*I *229:I I *C 46.2000 33.3200

*CAP
1 *89 *6:3 0.0155641
2 *89 *7:3 0.0701545
3 *89 *10:3 0.518702
4 *89 *29:2 0.00602626
5 *89 *39:6 0.0569851
6 *11:4 *118 0.0438653
7 *11:4 *40:3 0.126025
8 *11:4 *135 0.118881
9 *89 *63:2 0.285617
10 *89 *72:2 0.52856
11 *89 *73:2 0.0733209
12 *89 2.53778
13 *190:I 0.312028
14 *11:3 0.0871525
15 *11:4 1.85415
16 *11:6 0.0

*RES
1 *89 *11:4 50.9227
2 *190:I *11:6 0.001
3 *190:I *11:3 0.001
4 *190:I *11:4 53.2158
5 *229:I *11:5 0.001
6 *229:I *11:4 17.4678
*END

*D_NET *12 6.90563

*CONN
*P *90 I *C 5.3200 4.0000
*I *173:I I *C 18.7600 36.6800
*I *212:I I *C 13.7200 37.2400

*CAP
1 *90 *81 0.575185
2 *12:3 *3:3 0.00831885
3 *90 *91 0.686444
4 *12:3 *93 0.117433
5 *90 *19:3 0.0448049
6 *90 *30:2 0.0130547
7 *12:3 *34:2 0.374793
8 *12:3 *35:2 0.00486521
9 *12:3 *36:2 0.135806
10 *12:3 *37:2 0.00679889
11 *90 *118 0.153847
12 *90 2.55291
13 *173:I 0.455634
14 *12:3 1.77573
15 *12:5 0.0

*RES
1 *90 *12:3 54.9412
2 *173:I *12:3 53.2158
3 *173:I *12:5 0.001
4 *212:I *12:4 0.001
5 *212:I *12:3 17.1807
*END

*D_NET *13 9.79932

*CONN
*P *91 I *C 7.5600 4.0000
*I *174:I I *C 18.7600 52.3600
*I *213:I I *C 13.7200 52.9200

*CAP
1 *91 *81 0.0138668
2 *91 *90 0.686444
3 *91 *92 0.610596
4 *13:3 *15:3 0.00957152
5 *91 *19:3 0.0609956
6 *91 *21:3 0.00237986
7 *91 *30:2 0.356598
8 *91 *31:3 0.0803544
9 *91 *32:3 0.0887815
10 *13:3 *33:2 0.0483612
11 *13:3 *34:2 0.0609956
12 *13:3 *35:2 0.0489558
13 *13:3 *36:2 0.197645
14 *13:3 *37:2 0.0438812
15 *13:3 *119 1.55389
16 *91 3.29359
17 *174:I 0.21113
18 *213:I 0.0349188
19 *13:3 2.39636
20 *13:5 0.0

*RES
1 *91 *13:3 45.4619
2 *174:I *13:3 36.4887
3 *174:I *13:5 0.001
4 *213:I *13:3 33.69
5 *213:I *13:4 0.001
*END

*D_NET *14 7.92501

*CONN
*P *92 I *C 9.8000 4.0000
*I *175:I I *C 19.8800 44.5200
*I *214:I I *C 14.8400 45.0800

*CAP
1 *14:3 *3:3 0.277585
2 *92 *91 0.610596
3 *92 *93 0.379662
4 *14:3 *15:3 0.0415412
5 *92 *19:3 0.0170375
6 *92 *32:3 0.0132536
7 *92 *34:2 0.36528
8 *92 *35:2 0.395429
9 *92 *36:2 0.00312475
10 *14:3 *36:2 0.00767982
11 *14:3 *37:2 0.154236
12 *92 *221:Z 0.00318521
13 *14:3 *38:2 0.000531253
14 *92 3.70982
15 *175:I 0.263261
16 *14:3 1.68279
17 *14:5 0.0

*RES
1 *92 *14:3 57.2376
2 *175:I *14:3 53.2158
3 *175:I *14:5 0.001
4 *214:I *14:4 0.001
5 *214:I *14:3 17.1807
*END

*D_NET *15 9.57268

*CONN
*P *93 I *C 12.0400 4.0000
*I *176:I I *C 22.6800 48.4400
*I *215:I I *C 17.0800 49.0000

*CAP
1 *93 *3:3 0.0160238
2 *93 *12:3 0.117433
3 *15:3 *13:3 0.00957152
4 *93 *92 0.379662
5 *15:3 *14:3 0.0415412
6 *93 *94 0.278672
7 *93 *19:3 0.0020548
8 *93 *32:3 0.0181081
9 *93 *33:2 0.032822
10 *93 *34:2 0.395373
11 *93 *35:2 0.0521469
12 *15:3 *35:2 0.0035865
13 *93 *36:2 0.0566823
14 *15:3 *37:2 0.00243843
15 *93 *221:Z 1.80455
16 *15:3 *38:2 0.134627
17 *93 *117 0.010294
18 *93 2.60523
19 *176:I 0.0269595
20 *215:I 0.0399923
21 *15:3 3.54491
22 *15:5 0.0

*RES
1 *93 *15:3 42.0174
2 *176:I *15:3 36.6091
3 *176:I *15:5 0.001
4 *215:I *15:3 34.0744
5 *215:I *15:4 0.001
*END

*D_NET *16 5.16135

*CONN
*P *94 I *C 14.2800 4.0000
*I *177:I I *C 22.6800 24.3600
*I *216:I I *C 19.8800 21.5600

*CAP
1 *94 *93 0.278672
2 *94 *17:3 0.243271
3 *16:5 *17:3 0.180777
4 *16:5 *96 0.265323
5 *16:5 *20:3 0.00337097
6 *94 *35:2 0.0173328
7 *16:5 *35:2 0.0570703
8 *94 *219:Z 0.133098
9 *16:5 *219:Z 0.0577614
10 *94 *221:Z 0.19872
11 *16:5 *38:2 0.00941618
12 *16:5 *118 0.0011236
13 *94 1.93363
14 *177:I 0.272334
15 *16:3 0.0898035
16 *16:5 1.41964
17 *16:6 0.0

*RES
1 *94 *16:5 45.7559
2 *177:I *16:6 0.001
3 *177:I *16:3 0.001
4 *177:I *16:5 53.5515
5 *216:I *16:5 16.845
6 *216:I *16:4 0.001
*END

*D_NET *17 4.48406

*CONN
*P *95 I *C 16.5200 4.0000
*I *178:I I *C 19.3200 24.3600
*I *217:I I *C 17.0800 17.6400

*CAP
1 *17:3 *94 0.243271
2 *17:3 *16:5 0.180777
3 *17:3 *96 0.598332
4 *17:3 *35:2 0.0296346
5 *17:3 *219:Z 1.23444
6 *95 0.231699
7 *178:I 0.128308
8 *17:3 1.75369
9 *17:4 0.0839127
10 *17:6 0.0

*RES
1 *95 *17:3 6.99148
2 *178:I *17:3 55.3711
3 *178:I *17:6 0.001
4 *178:I *17:4 0.001
5 *217:I *17:3 16.845
6 *217:I *17:5 0.001
*END

*D_NET *18 5.78774

*CONN
*P *96 I *C 18.7600 4.0000
*I *179:I I *C 28.8400 29.4000
*I *218:I I *C 23.8000 29.4000

*CAP
1 *96 *16:5 0.265323
2 *96 *17:3 0.598332
3 *96 *97 0.204126
4 *96 *19:3 0.0462127
5 *96 *22:2 0.0121984
6 *18:3 *23:2 0.0514652
7 *18:3 *24:2 0.0175006
8 *96 *35:2 0.0256501
9 *96 *36:2 0.234652
10 *96 *219:Z 0.0187334
11 *96 *37:2 0.0689387
12 *96 *38:2 0.0612596
13 *18:3 *38:2 0.0319249
14 *18:3 *118 0.455516
15 *96 1.6959
16 *179:I 0.0211995
17 *218:I 0.0391851
18 *18:3 1.93961
19 *18:5 0.0

*RES
1 *96 *18:3 32.5451
2 *179:I *18:3 36.3221
3 *179:I *18:5 0.001
4 *218:I *18:3 33.69
5 *218:I *18:4 0.001
*END

*D_NET *19 3.60532

*CONN
*P *97 I *C 21.0000 4.0000
*I *180:I I *C 4.2000 9.8000
*I *219:I I *C 8.1200 9.8000

*CAP
1 *19:3 *81 0.0383923
2 *19:3 *90 0.0448049
3 *19:3 *91 0.0609956
4 *19:3 *92 0.0170375
5 *19:3 *93 0.0020548
6 *97 *96 0.204126
7 *19:3 *96 0.0462127
8 *97 *20:3 0.215696
9 *19:3 *20:3 0.0156503
10 *19:3 *117 0.740338
11 *97 0.713258
12 *180:I 0.15469
13 *219:I 0.0213997
14 *19:3 1.33066
15 *19:5 0.0

*RES
1 *97 *19:3 26.2302
2 *180:I *19:3 35.748
3 *180:I *19:4 0.001
4 *219:I *19:3 33.69
5 *219:I *19:5 0.001
*END

*D_NET *20 4.10227

*CONN
*P *98 I *C 23.2400 4.0000
*I *182:I I *C 24.9200 24.3600
*I *221:I I *C 23.8000 13.7200

*CAP
1 *20:3 *82 0.235071
2 *20:3 *83 0.0065516
3 *20:3 *16:5 0.00337097
4 *20:3 *97 0.215696
5 *20:3 *19:3 0.0156503
6 *20:3 *22:2 1.34595
7 *20:3 *23:2 0.0091601
8 *20:3 *117 0.0205747
9 *98 0.231699
10 *182:I 0.0509832
11 *20:3 1.87807
12 *20:4 0.0894808
13 *20:6 0.0

*RES
1 *98 *20:3 4.9822
2 *182:I *20:3 22.8498
3 *182:I *20:6 0.001
4 *182:I *20:4 0.001
5 *221:I *20:3 16.845
6 *221:I *20:5 0.001
*END

*D_NET *21 2.99806

*CONN
*P *99 O *C 3.0800 61.0000
*I *211:Z O *C 4.7600 41.7200 *D gf180mcu_fd_sc_mcu7t5v0__clkbuf_8

*CAP
1 *21:3 *81 0.0556046
2 *21:3 *3:3 0.0787442
3 *21:3 *91 0.00237986
4 *21:3 *30:2 0.628331
5 *99 0.560838
6 *21:3 1.67216
7 *21:4 0.0

*RES
1 *99 *21:3 10.7922
2 *211:Z *21:3 16.845
3 *211:Z *21:2 0.001
4 *211:Z *21:4 1.24235
*END

*D_NET *22 7.76886

*CONN
*P *100 O *C 25.4800 61.0000
*I *222:Z O *C 25.4800 10.3600 *D gf180mcu_fd_sc_mcu7t5v0__clkbuf_8

*CAP
1 *22:2 *82 0.0357184
2 *22:2 *83 0.103275
3 *22:2 *8:3 0.0197614
4 *22:2 *96 0.0121984
5 *22:2 *20:3 1.34595
6 *100 *101 0.132391
7 *22:2 *23:2 0.695447
8 *100 *116 0.132391
9 *22:2 *38:2 0.513747
10 *100 0.231699
11 *222:Z 0.970143
12 *22:2 3.57613
13 *22:4 0.0

*RES
1 *100 *22:2 5.52552
2 *222:Z *22:2 37.3248
3 *222:Z *22:3 0.001
4 *222:Z *22:4 0.740025
*END

*D_NET *23 5.70385

*CONN
*P *101 O *C 27.7200 61.0000
*I *223:Z O *C 27.7200 18.2000 *D gf180mcu_fd_sc_mcu7t5v0__clkbuf_8

*CAP
1 *23:2 *83 0.0370593
2 *23:2 *84 0.0153321
3 *23:2 *8:3 0.033203
4 *23:2 *18:3 0.0514652
5 *23:2 *20:3 0.0091601
6 *101 *100 0.132391
7 *23:2 *22:2 0.695447
8 *101 *102 0.132391
9 *23:2 *24:2 0.619926
10 *101 0.231699
11 *223:Z 0.68254
12 *23:2 3.06324
13 *23:3 0.0

*RES
1 *101 *23:2 1.50696
2 *223:Z *23:2 37.3248
3 *223:Z *23:3 0.001
*END

*D_NET *24 5.59206

*CONN
*P *102 O *C 29.9600 61.0000
*I *224:Z O *C 29.9600 21.0000 *D gf180mcu_fd_sc_mcu7t5v0__clkbuf_8

*CAP
1 *24:2 *84 0.0127559
2 *24:2 *86 0.000899151
3 *24:2 *8:3 0.0160238
4 *24:2 *18:3 0.0175006
5 *102 *101 0.132391
6 *24:2 *23:2 0.619926
7 *102 *103 0.132391
8 *24:2 *103 0.162025
9 *24:2 *25:2 0.076188
10 *24:2 *105 0.0105517
11 *102 0.231699
12 *24:2 4.17971
13 *24:3 0.0

*RES
1 *102 *24:2 10.3232
2 *224:Z *24:2 27.0734
3 *224:Z *24:3 0.001
*END

*D_NET *25 8.55058

*CONN
*P *103 O *C 32.2000 61.0000
*I *225:Z O *C 32.7600 13.1600 *D gf180mcu_fd_sc_mcu7t5v0__clkbuf_8

*CAP
1 *25:2 *5:3 0.0206351
2 *25:2 *84 0.0403837
3 *25:2 *6:3 0.0105866
4 *103 *86 0.00788129
5 *25:2 *86 2.41702
6 *103 *8:3 0.0283896
7 *25:2 *9:5 0.0500997
8 *103 *102 0.132391
9 *103 *24:2 0.162025
10 *25:2 *24:2 0.076188
11 *103 *26:3 0.285137
12 *25:2 *105 0.323922
13 *103 3.54985
14 *25:2 1.44607
15 *25:3 0.0

*RES
1 *103 *25:2 22.2251
2 *225:Z *25:3 0.001
3 *225:Z *25:2 19.7641
*END

*D_NET *26 1.56779

*CONN
*P *104 O *C 34.4400 61.0000
*I *226:Z O *C 34.4400 52.3600 *D gf180mcu_fd_sc_mcu7t5v0__clkbuf_8

*CAP
1 *26:3 *86 0.159707
2 *26:3 *103 0.285137
3 *26:3 *105 0.316441
4 *104 0.231699
5 *26:3 0.574809

*RES
1 *104 *26:3 4.47731
2 *226:Z *26:3 16.845
3 *226:Z *26:2 0.001
*END

*D_NET *27 3.36572

*CONN
*P *105 O *C 36.6800 61.0000
*I *227:Z O *C 32.7600 44.5200 *D gf180mcu_fd_sc_mcu7t5v0__clkbuf_8

*CAP
1 *105 *86 0.0412608
2 *105 *9:5 0.0353842
3 *105 *10:3 0.0536734
4 *105 *24:2 0.0105517
5 *105 *25:2 0.323922
6 *105 *26:3 0.316441
7 *105 *106 0.387232
8 *105 0.845693
9 *227:Z 0.0749416
10 *27:2 1.27662
11 *27:3 0.0

*RES
1 *105 *27:2 26.5864
2 *227:Z *27:2 34.6485
3 *227:Z *27:3 0.001
*END

*D_NET *28 2.37895

*CONN
*P *106 O *C 38.9200 61.0000
*I *228:Z O *C 35.5600 49.5600 *D gf180mcu_fd_sc_mcu7t5v0__clkbuf_8

*CAP
1 *106 *86 0.0265363
2 *106 *10:3 0.0395966
3 *106 *105 0.387232
4 *106 *107 0.132391
5 *106 *29:2 0.203623
6 *106 *119 0.0397413
7 *106 0.7512
8 *228:Z 0.0366007
9 *28:2 0.762028
10 *28:3 0.0

*RES
1 *106 *28:2 24.2901
2 *228:Z *28:2 34.0744
3 *228:Z *28:3 0.001
*END

*D_NET *29 3.81419

*CONN
*P *107 O *C 41.1600 61.0000
*I *229:Z O *C 41.1600 33.8800 *D gf180mcu_fd_sc_mcu7t5v0__clkbuf_8

*CAP
1 *29:2 *10:3 0.269862
2 *29:2 *89 0.00602626
3 *107 *106 0.132391
4 *29:2 *106 0.203623
5 *107 *123 0.132391
6 *29:2 *123 0.256788
7 *29:2 *63:2 0.0258995
8 *107 0.231699
9 *29:2 2.55551
10 *29:3 0.0

*RES
1 *107 *29:2 3.72127
2 *229:Z *29:2 27.0734
3 *229:Z *29:3 0.001
*END

*D_NET *30 3.54053

*CONN
*P *108 O *C 5.3200 61.0000
*I *212:Z O *C 5.3200 36.6800 *D gf180mcu_fd_sc_mcu7t5v0__clkbuf_8

*CAP
1 *30:2 *81 0.0677209
2 *30:2 *90 0.0130547
3 *30:2 *91 0.356598
4 *30:2 *21:3 0.628331
5 *30:2 *31:3 0.297878
6 *108 0.231699
7 *30:2 1.94525
8 *30:3 0.0

*RES
1 *108 *30:2 2.28607
2 *212:Z *30:2 27.0734
3 *212:Z *30:3 0.001
*END

*D_NET *31 1.41437

*CONN
*P *109 O *C 7.5600 61.0000
*I *213:Z O *C 7.5600 53.4800 *D gf180mcu_fd_sc_mcu7t5v0__clkbuf_8

*CAP
1 *31:3 *91 0.0803544
2 *31:3 *30:2 0.297878
3 *31:3 *32:3 0.287117
4 *109 0.231699
5 *31:3 0.517317

*RES
1 *109 *31:3 3.90323
2 *213:Z *31:3 16.845
3 *213:Z *31:2 0.001
*END

*D_NET *32 2.57343

*CONN
*P *110 O *C 9.8000 61.0000
*I *214:Z O *C 9.8000 44.5200 *D gf180mcu_fd_sc_mcu7t5v0__clkbuf_8

*CAP
1 *32:3 *91 0.0887815
2 *32:3 *92 0.0132536
3 *32:3 *93 0.0181081
4 *32:3 *31:3 0.287117
5 *32:3 *33:2 0.297425
6 *110 0.231699
7 *32:3 1.63705

*RES
1 *110 *32:3 8.49588
2 *214:Z *32:3 16.845
3 *214:Z *32:2 0.001
*END

*D_NET *33 2.05648

*CONN
*P *111 O *C 12.0400 61.0000
*I *215:Z O *C 12.6000 49.5600 *D gf180mcu_fd_sc_mcu7t5v0__clkbuf_8

*CAP
1 *33:2 *13:3 0.0483612
2 *33:2 *93 0.032822
3 *33:2 *32:3 0.297425
4 *33:2 *112 0.132391
5 *33:2 *34:2 0.233556
6 *33:2 *35:2 0.00322031
7 *33:2 *119 0.0181448
8 *111 0.231699
9 *215:Z 0.0612209
10 *33:2 0.997638
11 *33:3 0.0

*RES
1 *111 *33:2 3.85454
2 *215:Z *33:2 18.903
3 *215:Z *33:3 0.001
*END

*D_NET *34 6.63711

*CONN
*P *112 O *C 14.2800 61.0000
*I *216:Z O *C 14.2800 21.0000 *D gf180mcu_fd_sc_mcu7t5v0__clkbuf_8

*CAP
1 *34:2 *3:3 0.127786
2 *34:2 *12:3 0.374793
3 *34:2 *13:3 0.0609956
4 *34:2 *92 0.36528
5 *34:2 *93 0.395373
6 *112 *33:2 0.132391
7 *34:2 *33:2 0.233556
8 *112 *113 0.132391
9 *34:2 *35:2 1.25895
10 *34:2 *36:2 0.0164253
11 *34:2 *219:Z 0.0207311
12 *34:2 *221:Z 0.269129
13 *112 0.231699
14 *34:2 3.01762
15 *34:3 0.0

*RES
1 *112 *34:2 10.3232
2 *216:Z *34:2 27.0734
3 *216:Z *34:3 0.001
*END

*D_NET *35 7.69689

*CONN
*P *113 O *C 16.5200 61.0000
*I *217:Z O *C 13.7200 18.2000 *D gf180mcu_fd_sc_mcu7t5v0__clkbuf_8

*CAP
1 *35:2 *12:3 0.00486521
2 *35:2 *13:3 0.0489558
3 *35:2 *92 0.395429
4 *35:2 *93 0.0521469
5 *35:2 *15:3 0.0035865
6 *35:2 *94 0.0173328
7 *35:2 *16:5 0.0570703
8 *35:2 *17:3 0.0296346
9 *35:2 *96 0.0256501
10 *35:2 *33:2 0.00322031
11 *113 *112 0.132391
12 *35:2 *34:2 1.25895
13 *113 *114 0.132391
14 *35:2 *36:2 0.420041
15 *35:2 *219:Z 0.96034
16 *35:2 *221:Z 0.11084
17 *113 0.231699
18 *217:Z 0.880281
19 *35:2 2.93207
20 *35:3 0.0

*RES
1 *113 *35:2 4.71566
2 *217:Z *35:2 35.4309
3 *217:Z *35:3 0.001
*END

*D_NET *36 4.77648

*CONN
*P *114 O *C 18.7600 61.0000
*I *218:Z O *C 18.2000 28.8400 *D gf180mcu_fd_sc_mcu7t5v0__clkbuf_8

*CAP
1 *36:2 *3:3 0.121611
2 *36:2 *12:3 0.135806
3 *36:2 *13:3 0.197645
4 *36:2 *92 0.00312475
5 *36:2 *14:3 0.00767982
6 *36:2 *93 0.0566823
7 *36:2 *96 0.234652
8 *36:2 *34:2 0.0164253
9 *114 *113 0.132391
10 *36:2 *35:2 0.420041
11 *114 *115 0.132391
12 *36:2 *37:2 0.458366
13 *36:2 *119 0.00883783
14 *114 0.231699
15 *218:Z 0.255087
16 *36:2 2.36404
17 *36:3 0.0

*RES
1 *114 *36:2 3.85454
2 *218:Z *36:3 0.001
3 *218:Z *36:2 29.5235
*END

*D_NET *37 9.50117

*CONN
*P *115 O *C 21.0000 61.0000
*I *219:Z O *C 15.9600 10.3600 *D gf180mcu_fd_sc_mcu7t5v0__clkbuf_8

*CAP
1 *37:2 *3:3 0.0151866
2 *37:2 *8:3 0.000505028
3 *37:2 *12:3 0.00679889
4 *37:2 *13:3 0.0438812
5 *37:2 *14:3 0.154236
6 *37:2 *15:3 0.00243843
7 *219:Z *94 0.133098
8 *219:Z *16:5 0.0577614
9 *219:Z *17:3 1.23444
10 *219:Z *96 0.0187334
11 *37:2 *96 0.0689387
12 *219:Z *34:2 0.0207311
13 *219:Z *35:2 0.96034
14 *115 *114 0.132391
15 *37:2 *36:2 0.458366
16 *115 *116 0.132391
17 *219:Z *221:Z 0.0101307
18 *219:Z *38:2 0.108553
19 *37:2 *38:2 0.247255
20 *219:Z *118 0.0142953
21 *115 0.231699
22 *219:Z 0.583925
23 *37:2 4.86508
24 *37:3 0.0

*RES
1 *115 *37:2 2.70638
2 *219:Z *37:2 76.3251
3 *219:Z *37:3 0.001
*END

*D_NET *38 10.467

*CONN
*P *116 O *C 23.2400 61.0000
*I *221:Z O *C 13.1600 13.1600 *D gf180mcu_fd_sc_mcu7t5v0__clkbuf_8

*CAP
1 *38:2 *8:3 0.124065
2 *221:Z *92 0.00318521
3 *38:2 *14:3 0.000531253
4 *221:Z *93 1.80455
5 *38:2 *15:3 0.134627
6 *221:Z *94 0.19872
7 *38:2 *16:5 0.00941618
8 *38:2 *96 0.0612596
9 *38:2 *18:3 0.0319249
10 *116 *100 0.132391
11 *38:2 *22:2 0.513747
12 *221:Z *34:2 0.269129
13 *221:Z *35:2 0.11084
14 *116 *115 0.132391
15 *221:Z *219:Z 0.0101307
16 *38:2 *219:Z 0.108553
17 *38:2 *37:2 0.247255
18 *38:2 *118 1.35116
19 *116 0.231699
20 *221:Z 1.09833
21 *38:2 3.89313
22 *38:3 0.0

*RES
1 *116 *38:2 6.87871
2 *221:Z *38:2 73.5879
3 *221:Z *38:3 0.001
*END

*D_NET *39 8.13231

*CONN
*P *117 I *C 4.0000 10.9200
*I *168:I I *C 42.2800 16.5200
*I *207:I I *C 43.4000 13.7200

*CAP
1 *117 *4:3 0.193752
2 *117 *7:3 1.27953
3 *117 *9:5 0.00860059
4 *39:6 *89 0.0569851
5 *117 *93 0.010294
6 *117 *19:3 0.740338
7 *117 *20:3 0.0205747
8 *117 *63:2 0.00311641
9 *39:6 *63:2 0.844194
10 *39:6 *150 0.00948135
11 *117 2.66246
12 *168:I 0.012655
13 *39:3 0.123662
14 *39:6 2.16666

*RES
1 *117 *39:6 38.5729
2 *168:I *39:6 18.7825
3 *168:I *39:4 0.001
4 *168:I *39:3 0.001
5 *207:I *39:6 16.845
6 *207:I *39:5 0.001
*END

*D_NET *40 11.5385

*CONN
*P *118 I *C 4.0000 32.2000
*I *169:I I *C 63.0000 26.0400
*I *208:I I *C 66.3600 29.4000

*CAP
1 *118 *81 0.160778
2 *118 *11:4 0.0438653
3 *40:3 *11:4 0.126025
4 *118 *90 0.153847
5 *118 *16:5 0.0011236
6 *118 *18:3 0.455516
7 *118 *219:Z 0.0142953
8 *118 *38:2 1.35116
9 *40:3 *46:3 0.283134
10 *40:3 *52:3 0.0235211
11 *40:3 *57:3 0.134031
12 *40:3 *58:3 0.00278063
13 *40:3 *139 0.0468372
14 *40:3 *140 0.116256
15 *40:3 *62:4 0.0224396
16 *40:3 *65:2 0.0225702
17 *40:3 *70:2 1.19259
18 *118 4.59255
19 *169:I 0.134248
20 *208:I 0.0886871
21 *40:3 2.57228
22 *40:5 0.0

*RES
1 *118 *40:3 33.435
2 *169:I *40:3 34.9356
3 *169:I *40:4 0.001
4 *208:I *40:3 36.0965
5 *208:I *40:5 0.001
*END

*D_NET *41 10.6761

*CONN
*P *119 I *C 4.0000 53.4800
*I *171:I I *C 61.8800 53.4800
*I *210:I I *C 63.0000 49.0000

*CAP
1 *119 *8:3 1.36171
2 *119 *13:3 1.55389
3 *119 *106 0.0397413
4 *119 *33:2 0.0181448
5 *119 *36:2 0.00883783
6 *119 *55:3 0.0721349
7 *119 *135 0.0324899
8 *119 *138 0.0105576
9 *119 *139 0.625027
10 *119 *140 0.106167
11 *119 2.94267
12 *210:I 0.0452011
13 *41:3 3.85957
14 *41:5 0.0

*RES
1 *119 *41:3 46.5613
2 *171:I *41:3 16.845
3 *171:I *41:4 0.001
4 *210:I *41:5 0.001
5 *210:I *41:3 19.6923
*END

*D_NET *42 6.27993

*CONN
*P *120 O *C 81.0000 10.9200
*I *207:Z O *C 55.1600 13.1600 *D gf180mcu_fd_sc_mcu7t5v0__clkbuf_8

*CAP
1 *42:2 *46:3 1.36842
2 *42:2 *60:6 0.0394135
3 *42:2 *64:2 1.37401
4 *42:2 *67:2 0.00626996
5 *42:2 *148 0.00154929
6 *42:2 *154 0.323311
7 *42:2 *155 0.0798866
8 *42:2 *78:2 0.0142309
9 *120 0.73427
10 *207:Z 0.141457
11 *42:2 2.1971
12 *42:3 0.0

*RES
1 *120 *42:2 3.06518
2 *207:Z *42:2 45.0178
3 *207:Z *42:3 0.001
*END

*D_NET *43 2.28734

*CONN
*P *121 O *C 81.0000 32.2000
*I *208:Z O *C 75.3200 29.9600 *D gf180mcu_fd_sc_mcu7t5v0__clkbuf_8

*CAP
1 *43:2 *48:4 0.418701
2 *43:2 *128 0.0189604
3 *43:2 *50:5 0.0263117
4 *43:2 *52:3 0.0385879
5 *43:2 *67:2 0.000304355
6 *43:2 *69:2 0.0566167
7 *43:2 *70:2 0.00611149
8 *43:2 *206:Z 0.346115
9 *121 0.733841
10 *208:Z 0.0869229
11 *43:2 0.554871
12 *43:3 0.0

*RES
1 *121 *43:2 2.9601
2 *208:Z *43:2 34.9356
3 *208:Z *43:3 0.001
*END

*D_NET *44 2.71086

*CONN
*P *122 O *C 81.0000 53.4800
*I *210:Z O *C 71.9600 49.5600 *D gf180mcu_fd_sc_mcu7t5v0__clkbuf_8

*CAP
1 *44:2 *126 0.0318806
2 *44:2 *49:4 0.0179855
3 *44:2 *128 0.0185414
4 *44:2 *51:3 0.000718519
5 *44:2 *67:2 0.400166
6 *122 0.753055
7 *210:Z 0.214872
8 *44:2 1.27364
9 *44:3 0.0

*RES
1 *122 *44:2 4.68234
2 *210:Z *44:2 35.7967
3 *210:Z *44:3 0.001
*END

*D_NET *45 4.79883

*CONN
*P *123 I *C 43.4000 61.0000
*I *159:I I *C 53.4800 41.1600
*I *198:I I *C 48.4400 41.1600

*CAP
1 *123 *107 0.132391
2 *123 *29:2 0.256788
3 *123 *132 0.250292
4 *45:3 *56:3 0.00984408
5 *45:3 *135 0.00191931
6 *45:3 *58:3 0.00155185
7 *123 *63:2 0.275269
8 *123 *72:2 0.167265
9 *123 *73:2 0.116845
10 *123 *74:2 0.0371354
11 *123 1.19669
12 *159:I 0.0293054
13 *198:I 0.0201519
14 *45:3 2.30338
15 *45:5 0.0

*RES
1 *123 *45:3 29.6952
2 *159:I *45:3 36.3221
3 *159:I *45:5 0.001
4 *198:I *45:3 33.69
5 *198:I *45:4 0.001
*END

*D_NET *46 11.3789

*CONN
*P *124 I *C 65.8000 61.0000
*I *160:I I *C 77.5600 10.3600
*I *199:I I *C 58.5200 9.8000

*CAP
1 *46:3 *40:3 0.283134
2 *46:3 *42:2 1.36842
3 *124 *125 0.508534
4 *46:3 *52:3 0.515994
5 *124 *59:4 0.00208952
6 *46:3 *59:4 0.0934657
7 *46:3 *60:6 0.0606711
8 *124 *140 0.798945
9 *46:3 *140 0.11116
10 *46:3 *142 0.0257806
11 *46:3 *64:2 0.0603934
12 *124 *65:2 0.0742829
13 *46:3 *65:2 0.222782
14 *46:3 *147 0.257263
15 *46:3 *148 0.0719713
16 *46:3 *155 0.0930593
17 *46:3 *157 0.0480067
18 *46:3 *80:2 0.166784
19 *124 3.22139
20 *160:I 0.631564
21 *199:I 0.892571
22 *46:3 1.87063
23 *46:5 0.0

*RES
1 *124 *46:3 24.8085
2 *160:I *46:5 0.001
3 *160:I *46:3 57.9058
4 *199:I *46:4 0.001
5 *199:I *46:3 55.9452
*END

*D_NET *47 5.38058

*CONN
*P *125 I *C 68.0400 61.0000
*I *161:I I *C 77.5600 38.3600
*I *200:I I *C 72.5200 37.2400

*CAP
1 *125 *124 0.508534
2 *125 *126 0.456705
3 *125 *128 0.000785338
4 *47:4 *130 0.0315144
5 *125 *65:2 0.00970235
6 *125 *67:2 0.1227
7 *47:4 *69:2 0.162571
8 *125 *206:Z 0.0375127
9 *125 2.26941
10 *161:I 0.0561009
11 *200:I 0.147173
12 *47:3 0.0943746