*SPEF "ieee 1481-1999"
*DESIGN "mprj_io_buffer"
*DATE "11:11:11 Fri 11 11, 1111"
*VENDOR "OpenRCX"
*PROGRAM "Parallel Extraction"
*VERSION "1.0"
*DESIGN_FLOW "NAME_SCOPE LOCAL" "PIN_CAP NONE"
*DIVIDER /
*DELIMITER :
*BUS_DELIMITER []
*T_UNIT 1 NS
*C_UNIT 1 PF
*R_UNIT 1 OHM
*L_UNIT 1 HENRY

*NAME_MAP
*3 mgmt_gpio_in[0]
*4 mgmt_gpio_in[10]
*5 mgmt_gpio_in[11]
*6 mgmt_gpio_in[12]
*7 mgmt_gpio_in[13]
*8 mgmt_gpio_in[14]
*9 mgmt_gpio_in[15]
*10 mgmt_gpio_in[16]
*11 mgmt_gpio_in[17]
*12 mgmt_gpio_in[1]
*13 mgmt_gpio_in[2]
*14 mgmt_gpio_in[3]
*15 mgmt_gpio_in[4]
*16 mgmt_gpio_in[5]
*17 mgmt_gpio_in[6]
*18 mgmt_gpio_in[7]
*19 mgmt_gpio_in[8]
*20 mgmt_gpio_in[9]
*21 mgmt_gpio_in_buf[0]
*22 mgmt_gpio_in_buf[10]
*23 mgmt_gpio_in_buf[11]
*24 mgmt_gpio_in_buf[12]
*25 mgmt_gpio_in_buf[13]
*26 mgmt_gpio_in_buf[14]
*27 mgmt_gpio_in_buf[15]
*28 mgmt_gpio_in_buf[16]
*29 mgmt_gpio_in_buf[17]
*30 mgmt_gpio_in_buf[1]
*31 mgmt_gpio_in_buf[2]
*32 mgmt_gpio_in_buf[3]
*33 mgmt_gpio_in_buf[4]
*34 mgmt_gpio_in_buf[5]
*35 mgmt_gpio_in_buf[6]
*36 mgmt_gpio_in_buf[7]
*37 mgmt_gpio_in_buf[8]
*38 mgmt_gpio_in_buf[9]
*39 mgmt_gpio_oeb[0]
*40 mgmt_gpio_oeb[1]
*41 mgmt_gpio_oeb[2]
*42 mgmt_gpio_oeb_buf[0]
*43 mgmt_gpio_oeb_buf[1]
*44 mgmt_gpio_oeb_buf[2]
*45 mgmt_gpio_out[0]
*46 mgmt_gpio_out[10]
*47 mgmt_gpio_out[11]
*48 mgmt_gpio_out[12]
*49 mgmt_gpio_out[13]
*50 mgmt_gpio_out[14]
*51 mgmt_gpio_out[15]
*52 mgmt_gpio_out[16]
*53 mgmt_gpio_out[17]
*54 mgmt_gpio_out[1]
*55 mgmt_gpio_out[2]
*56 mgmt_gpio_out[3]
*57 mgmt_gpio_out[4]
*58 mgmt_gpio_out[5]
*59 mgmt_gpio_out[6]
*60 mgmt_gpio_out[7]
*61 mgmt_gpio_out[8]
*62 mgmt_gpio_out[9]
*63 mgmt_gpio_out_buf[0]
*64 mgmt_gpio_out_buf[10]
*65 mgmt_gpio_out_buf[11]
*66 mgmt_gpio_out_buf[12]
*67 mgmt_gpio_out_buf[13]
*68 mgmt_gpio_out_buf[14]
*69 mgmt_gpio_out_buf[15]
*70 mgmt_gpio_out_buf[16]
*71 mgmt_gpio_out_buf[17]
*72 mgmt_gpio_out_buf[1]
*73 mgmt_gpio_out_buf[2]
*74 mgmt_gpio_out_buf[3]
*75 mgmt_gpio_out_buf[4]
*76 mgmt_gpio_out_buf[5]
*77 mgmt_gpio_out_buf[6]
*78 mgmt_gpio_out_buf[7]
*79 mgmt_gpio_out_buf[8]
*80 mgmt_gpio_out_buf[9]
*81 ANTENNA_BUF\[0\]_I
*82 ANTENNA_BUF\[10\]_I
*83 ANTENNA_BUF\[11\]_I
*84 ANTENNA_BUF\[12\]_I
*85 ANTENNA_BUF\[13\]_I
*86 ANTENNA_BUF\[14\]_I
*87 ANTENNA_BUF\[15\]_I
*88 ANTENNA_BUF\[16\]_I
*89 ANTENNA_BUF\[17\]_I
*90 ANTENNA_BUF\[18\]_I
*91 ANTENNA_BUF\[19\]_I
*92 ANTENNA_BUF\[1\]_I
*93 ANTENNA_BUF\[20\]_I
*94 ANTENNA_BUF\[21\]_I
*95 ANTENNA_BUF\[22\]_I
*96 ANTENNA_BUF\[23\]_I
*97 ANTENNA_BUF\[24\]_I
*98 ANTENNA_BUF\[25\]_I
*99 ANTENNA_BUF\[26\]_I
*100 ANTENNA_BUF\[27\]_I
*101 ANTENNA_BUF\[28\]_I
*102 ANTENNA_BUF\[29\]_I
*103 ANTENNA_BUF\[2\]_I
*104 ANTENNA_BUF\[30\]_I
*105 ANTENNA_BUF\[31\]_I
*106 ANTENNA_BUF\[32\]_I
*107 ANTENNA_BUF\[33\]_I
*108 ANTENNA_BUF\[34\]_I
*109 ANTENNA_BUF\[35\]_I
*110 ANTENNA_BUF\[36\]_I
*111 ANTENNA_BUF\[37\]_I
*112 ANTENNA_BUF\[38\]_I
*113 ANTENNA_BUF\[3\]_I
*114 ANTENNA_BUF\[4\]_I
*115 ANTENNA_BUF\[5\]_I
*116 ANTENNA_BUF\[6\]_I
*117 ANTENNA_BUF\[7\]_I
*118 ANTENNA_BUF\[8\]_I
*119 ANTENNA_BUF\[9\]_I
*120 BUF\[0\]
*121 BUF\[10\]
*122 BUF\[11\]
*123 BUF\[12\]
*124 BUF\[13\]
*125 BUF\[14\]
*126 BUF\[15\]
*127 BUF\[16\]
*128 BUF\[17\]
*129 BUF\[18\]
*130 BUF\[19\]
*131 BUF\[1\]
*132 BUF\[20\]
*133 BUF\[21\]
*134 BUF\[22\]
*135 BUF\[23\]
*136 BUF\[24\]
*137 BUF\[25\]
*138 BUF\[26\]
*139 BUF\[27\]
*140 BUF\[28\]
*141 BUF\[29\]
*142 BUF\[2\]
*143 BUF\[30\]
*144 BUF\[31\]
*145 BUF\[32\]
*146 BUF\[33\]
*147 BUF\[34\]
*148 BUF\[35\]
*149 BUF\[36\]
*150 BUF\[37\]
*151 BUF\[38\]
*152 BUF\[3\]
*153 BUF\[4\]
*154 BUF\[5\]
*155 BUF\[6\]
*156 BUF\[7\]
*157 BUF\[8\]
*158 BUF\[9\]
*159 FILLER_0_104
*160 FILLER_0_107
*161 FILLER_0_134
*162 FILLER_0_138
*163 FILLER_0_142
*164 FILLER_0_144
*165 FILLER_0_2
*166 FILLER_0_34
*167 FILLER_0_37
*168 FILLER_0_6
*169 FILLER_0_64
*170 FILLER_0_68
*171 FILLER_0_72
*172 FILLER_0_75
*173 FILLER_0_77
*174 FILLER_10_101
*175 FILLER_10_105
*176 FILLER_10_108
*177 FILLER_10_135
*178 FILLER_10_139
*179 FILLER_10_143
*180 FILLER_10_2
*181 FILLER_10_34
*182 FILLER_10_37
*183 FILLER_10_40
*184 FILLER_10_44
*185 FILLER_10_46
*186 FILLER_10_6
*187 FILLER_10_73
*188 FILLER_11_103
*189 FILLER_11_107
*190 FILLER_11_110
*191 FILLER_11_112
*192 FILLER_11_139
*193 FILLER_11_142
*194 FILLER_11_144
*195 FILLER_11_2
*196 FILLER_11_29
*197 FILLER_11_33
*198 FILLER_11_37
*199 FILLER_11_41
*200 FILLER_11_69
*201 FILLER_11_72
*202 FILLER_11_99
*203 FILLER_1_10
*204 FILLER_1_100
*205 FILLER_1_128
*206 FILLER_1_132
*207 FILLER_1_136
*208 FILLER_1_138
*209 FILLER_1_14
*210 FILLER_1_141
*211 FILLER_1_144
*212 FILLER_1_2
*213 FILLER_1_42
*214 FILLER_1_70
*215 FILLER_1_73
*216 FILLER_2_105
*217 FILLER_2_108
*218 FILLER_2_135
*219 FILLER_2_139
*220 FILLER_2_143
*221 FILLER_2_2
*222 FILLER_2_34
*223 FILLER_2_37
*224 FILLER_2_6
*225 FILLER_2_64
*226 FILLER_2_68
*227 FILLER_2_74
*228 FILLER_2_78
*229 FILLER_3_107
*230 FILLER_3_135
*231 FILLER_3_137
*232 FILLER_3_140
*233 FILLER_3_144
*234 FILLER_3_2
*235 FILLER_3_36
*236 FILLER_3_40
*237 FILLER_3_67
*238 FILLER_3_73
*239 FILLER_3_76
*240 FILLER_3_80
*241 FILLER_4_101
*242 FILLER_4_105
*243 FILLER_4_108
*244 FILLER_4_111
*245 FILLER_4_115
*246 FILLER_4_117
*247 FILLER_4_144
*248 FILLER_4_18
*249 FILLER_4_2
*250 FILLER_4_26
*251 FILLER_4_30
*252 FILLER_4_34
*253 FILLER_4_37
*254 FILLER_4_40
*255 FILLER_4_44
*256 FILLER_4_76
*257 FILLER_4_92
*258 FILLER_4_96
*259 FILLER_4_98
*260 FILLER_5_113
*261 FILLER_5_141
*262 FILLER_5_144
*263 FILLER_5_18
*264 FILLER_5_2
*265 FILLER_5_20
*266 FILLER_5_47
*267 FILLER_5_51
*268 FILLER_5_67
*269 FILLER_5_73
*270 FILLER_5_81
*271 FILLER_5_85
*272 FILLER_6_103
*273 FILLER_6_105
*274 FILLER_6_108
*275 FILLER_6_138
*276 FILLER_6_144
*277 FILLER_6_2
*278 FILLER_6_34
*279 FILLER_6_37
*280 FILLER_6_53
*281 FILLER_6_87
*282 FILLER_6_91
*283 FILLER_6_99
*284 FILLER_7_134
*285 FILLER_7_138
*286 FILLER_7_144
*287 FILLER_7_2
*288 FILLER_7_29
*289 FILLER_7_33
*290 FILLER_7_65
*291 FILLER_7_69
*292 FILLER_7_73
*293 FILLER_7_76
*294 FILLER_8_103
*295 FILLER_8_105
*296 FILLER_8_108
*297 FILLER_8_116
*298 FILLER_8_144
*299 FILLER_8_2
*300 FILLER_8_29
*301 FILLER_8_33
*302 FILLER_8_37
*303 FILLER_8_53
*304 FILLER_8_63
*305 FILLER_8_91
*306 FILLER_8_95
*307 FILLER_9_103
*308 FILLER_9_107
*309 FILLER_9_141
*310 FILLER_9_144
*311 FILLER_9_2
*312 FILLER_9_31
*313 FILLER_9_35
*314 FILLER_9_4
*315 FILLER_9_43
*316 FILLER_9_70
*317 FILLER_9_73
*318 PHY_0
*319 PHY_1
*320 PHY_10
*321 PHY_11
*322 PHY_12
*323 PHY_13
*324 PHY_14
*325 PHY_15
*326 PHY_16
*327 PHY_17
*328 PHY_18
*329 PHY_19
*330 PHY_2
*331 PHY_20
*332 PHY_21
*333 PHY_22
*334 PHY_23
*335 PHY_3
*336 PHY_4
*337 PHY_5
*338 PHY_6
*339 PHY_7
*340 PHY_8
*341 PHY_9
*342 TAP_24
*343 TAP_25
*344 TAP_26
*345 TAP_27
*346 TAP_28
*347 TAP_29
*348 TAP_30
*349 TAP_31
*350 TAP_32
*351 TAP_33
*352 TAP_34
*353 TAP_35
*354 TAP_36
*355 TAP_37
*356 TAP_38
*357 TAP_39
*358 TAP_40
*359 TAP_41
*360 TAP_42
*361 TAP_43
*362 TAP_44
*363 TAP_45
*364 TAP_46
*365 TAP_47
*366 TAP_48
*367 TAP_49
*368 TAP_50
*369 TAP_51

*PORTS
mgmt_gpio_in[0] I
mgmt_gpio_in[10] I
mgmt_gpio_in[11] I
mgmt_gpio_in[12] I
mgmt_gpio_in[13] I
mgmt_gpio_in[14] I
mgmt_gpio_in[15] I
mgmt_gpio_in[16] I
mgmt_gpio_in[17] I
mgmt_gpio_in[1] I
mgmt_gpio_in[2] I
mgmt_gpio_in[3] I
mgmt_gpio_in[4] I
mgmt_gpio_in[5] I
mgmt_gpio_in[6] I
mgmt_gpio_in[7] I
mgmt_gpio_in[8] I
mgmt_gpio_in[9] I
mgmt_gpio_in_buf[0] O
mgmt_gpio_in_buf[10] O
mgmt_gpio_in_buf[11] O
mgmt_gpio_in_buf[12] O
mgmt_gpio_in_buf[13] O
mgmt_gpio_in_buf[14] O
mgmt_gpio_in_buf[15] O
mgmt_gpio_in_buf[16] O
mgmt_gpio_in_buf[17] O
mgmt_gpio_in_buf[1] O
mgmt_gpio_in_buf[2] O
mgmt_gpio_in_buf[3] O
mgmt_gpio_in_buf[4] O
mgmt_gpio_in_buf[5] O
mgmt_gpio_in_buf[6] O
mgmt_gpio_in_buf[7] O
mgmt_gpio_in_buf[8] O
mgmt_gpio_in_buf[9] O
mgmt_gpio_oeb[0] I
mgmt_gpio_oeb[1] I
mgmt_gpio_oeb[2] I
mgmt_gpio_oeb_buf[0] O
mgmt_gpio_oeb_buf[1] O
mgmt_gpio_oeb_buf[2] O
mgmt_gpio_out[0] I
mgmt_gpio_out[10] I
mgmt_gpio_out[11] I
mgmt_gpio_out[12] I
mgmt_gpio_out[13] I
mgmt_gpio_out[14] I
mgmt_gpio_out[15] I
mgmt_gpio_out[16] I
mgmt_gpio_out[17] I
mgmt_gpio_out[1] I
mgmt_gpio_out[2] I
mgmt_gpio_out[3] I
mgmt_gpio_out[4] I
mgmt_gpio_out[5] I
mgmt_gpio_out[6] I
mgmt_gpio_out[7] I
mgmt_gpio_out[8] I
mgmt_gpio_out[9] I
mgmt_gpio_out_buf[0] O
mgmt_gpio_out_buf[10] O
mgmt_gpio_out_buf[11] O
mgmt_gpio_out_buf[12] O
mgmt_gpio_out_buf[13] O
mgmt_gpio_out_buf[14] O
mgmt_gpio_out_buf[15] O
mgmt_gpio_out_buf[16] O
mgmt_gpio_out_buf[17] O
mgmt_gpio_out_buf[1] O
mgmt_gpio_out_buf[2] O
mgmt_gpio_out_buf[3] O
mgmt_gpio_out_buf[4] O
mgmt_gpio_out_buf[5] O
mgmt_gpio_out_buf[6] O
mgmt_gpio_out_buf[7] O
mgmt_gpio_out_buf[8] O
mgmt_gpio_out_buf[9] O

*D_NET *3 0.00613383
*CONN
*P mgmt_gpio_in[0] I
*I *94:I I *D gf180mcu_fd_sc_mcu7t5v0__antenna
*I *133:I I *D gf180mcu_fd_sc_mcu7t5v0__clkbuf_8
*CAP
1 mgmt_gpio_in[0] 0.00223459
2 *94:I 0.00023233
3 *133:I 0
4 *3:8 0.00246692
5 *94:I *95:I 0
6 *94:I *97:I 3.75069e-05
7 *94:I *14:11 7.94556e-05
8 *3:8 mgmt_gpio_in_buf[1] 0.000112518
9 *3:8 *12:11 0.000772181
10 *3:8 *13:12 0
11 *3:8 *14:11 0.000198339
*RES
1 mgmt_gpio_in[0] *3:8 20.115 
2 *3:8 *133:I 9 
3 *3:8 *94:I 10.71 
*END

*D_NET *4 0.0025358
*CONN
*P mgmt_gpio_in[10] I
*I *105:I I *D gf180mcu_fd_sc_mcu7t5v0__antenna
*I *144:I I *D gf180mcu_fd_sc_mcu7t5v0__clkbuf_8
*CAP
1 mgmt_gpio_in[10] 0.000574744
2 *105:I 0.000160122
3 *144:I 2.4675e-05
4 *4:8 0.000759541
5 *105:I *108:I 7.2966e-05
6 *105:I *7:8 0.000204814
7 *144:I *7:8 1.87762e-05
8 *144:I *8:12 0.000113035
9 *4:8 *5:8 0.000140099
10 *4:8 *7:8 8.81377e-05
11 *4:8 *20:7 0.000147462
12 *4:8 *39:8 0.000231428
*RES
1 mgmt_gpio_in[10] *4:8 9.135 
2 *4:8 *144:I 9.27 
3 *4:8 *105:I 10.53 
*END

*D_NET *5 0.00313217
*CONN
*P mgmt_gpio_in[11] I
*I *106:I I *D gf180mcu_fd_sc_mcu7t5v0__antenna
*I *145:I I *D gf180mcu_fd_sc_mcu7t5v0__clkbuf_8
*CAP
1 mgmt_gpio_in[11] 0.000858546
2 *106:I 0.000234319
3 *145:I 1.85809e-05
4 *5:8 0.00111145
5 *106:I *107:I 0
6 *106:I *6:11 4.08612e-05
7 *145:I mgmt_gpio_in_buf[13] 3.7384e-05
8 *145:I *8:12 0.000113035
9 *5:8 mgmt_gpio_in_buf[10] 0.000159029
10 *5:8 *6:11 0.000418865
11 *5:8 *20:7 0
12 *4:8 *5:8 0.000140099
*RES
1 mgmt_gpio_in[11] *5:8 10.935 
2 *5:8 *145:I 9.27 
3 *5:8 *106:I 10.53 
*END

*D_NET *6 0.00448116
*CONN
*P mgmt_gpio_in[12] I
*I *146:I I *D gf180mcu_fd_sc_mcu7t5v0__clkbuf_8
*I *107:I I *D gf180mcu_fd_sc_mcu7t5v0__antenna
*CAP
1 mgmt_gpio_in[12] 0.000969498
2 *146:I 4.38877e-06
3 *107:I 0.000458478
4 *6:11 0.00143236
5 *146:I *8:12 8.15069e-05
6 *146:I *9:9 0.000113035
7 *6:11 mgmt_gpio_in_buf[10] 0
8 *6:11 mgmt_gpio_in_buf[11] 2.36412e-05
9 *6:11 mgmt_gpio_in_buf[13] 0.00010295
10 *6:11 *7:8 0.000169175
11 *6:11 *8:12 0.000337818
12 *6:11 *9:9 0.000328582
13 *106:I *107:I 0
14 *106:I *6:11 4.08612e-05
15 *5:8 *6:11 0.000418865
*RES
1 mgmt_gpio_in[12] *6:11 16.425 
2 *6:11 *107:I 16.11 
3 *6:11 *146:I 4.77 
*END

*D_NET *7 0.0037904
*CONN
*P mgmt_gpio_in[13] I
*I *108:I I *D gf180mcu_fd_sc_mcu7t5v0__antenna
*I *147:I I *D gf180mcu_fd_sc_mcu7t5v0__clkbuf_8
*CAP
1 mgmt_gpio_in[13] 0.000336471
2 *108:I 0.0001428
3 *147:I 0.000101248
4 *7:8 0.00058052
5 *108:I *39:8 0.000738229
6 *147:I *9:9 0.000370463
7 *147:I *10:5 0.000104361
8 *7:8 *8:12 0.000131224
9 *7:8 *39:8 0.00073121
10 *105:I *108:I 7.2966e-05
11 *105:I *7:8 0.000204814
12 *144:I *7:8 1.87762e-05
13 *4:8 *7:8 8.81377e-05
14 *6:11 *7:8 0.000169175
*RES
1 mgmt_gpio_in[13] *7:8 8.415 
2 *7:8 *147:I 10.17 
3 *7:8 *108:I 10.71 
*END

*D_NET *8 0.0103027
*CONN
*P mgmt_gpio_in[14] I
*I *148:I I *D gf180mcu_fd_sc_mcu7t5v0__clkbuf_8
*I *109:I I *D gf180mcu_fd_sc_mcu7t5v0__antenna
*CAP
1 mgmt_gpio_in[14] 0.00149244
2 *148:I 0
3 *109:I 0.000138473
4 *8:12 0.00163091
5 *109:I *41:7 0.000770163
6 *8:12 mgmt_gpio_in_buf[13] 0.00281942
7 *8:12 mgmt_gpio_in_buf[14] 0.000113024
8 *8:12 mgmt_gpio_in_buf[15] 8.71059e-05
9 *8:12 mgmt_gpio_in_buf[16] 3.37202e-05
10 *8:12 *149:I 0.000176024
11 *8:12 *150:I 0
12 *8:12 *9:9 0.00155392
13 *8:12 *41:7 0.000710854
14 *144:I *8:12 0.000113035
15 *145:I *8:12 0.000113035
16 *146:I *8:12 8.15069e-05
17 *6:11 *8:12 0.000337818
18 *7:8 *8:12 0.000131224
*RES
1 mgmt_gpio_in[14] *8:12 22.455 
2 *8:12 *109:I 10.71 
3 *8:12 *148:I 9 
*END

*D_NET *9 0.00598117
*CONN
*P mgmt_gpio_in[15] I
*I *149:I I *D gf180mcu_fd_sc_mcu7t5v0__clkbuf_8
*I *110:I I *D gf180mcu_fd_sc_mcu7t5v0__antenna
*CAP
1 mgmt_gpio_in[15] 0.00126618
2 *149:I 0.000220915
3 *110:I 0
4 *9:9 0.00148709
5 *149:I *150:I 9.96594e-05
6 *9:9 *150:I 2.73013e-05
7 *9:9 *10:5 0.000338006
8 *146:I *9:9 0.000113035
9 *147:I *9:9 0.000370463
10 *6:11 *9:9 0.000328582
11 *8:12 *149:I 0.000176024
12 *8:12 *9:9 0.00155392
*RES
1 mgmt_gpio_in[15] *9:9 12.285 
2 *9:9 *110:I 4.5 
3 *9:9 *149:I 6.75 
*END

*D_NET *10 0.00585211
*CONN
*P mgmt_gpio_in[16] I
*I *150:I I *D gf180mcu_fd_sc_mcu7t5v0__clkbuf_8
*I *111:I I *D gf180mcu_fd_sc_mcu7t5v0__antenna
*CAP
1 mgmt_gpio_in[16] 0.00137823
2 *150:I 0.000468496
3 *111:I 0.000266457
4 *10:5 0.00211318
5 *150:I mgmt_gpio_in_buf[15] 6.52443e-05
6 *150:I mgmt_gpio_in_buf[17] 0.000305005
7 *10:5 mgmt_gpio_in_buf[17] 6.52355e-05
8 *10:5 mgmt_gpio_out_buf[0] 0
9 *10:5 *11:11 0.000620939
10 *147:I *10:5 0.000104361
11 *149:I *150:I 9.96594e-05
12 *8:12 *150:I 0
13 *9:9 *150:I 2.73013e-05
14 *9:9 *10:5 0.000338006
*RES
1 mgmt_gpio_in[16] *10:5 10.665 
2 *10:5 *111:I 14.85 
3 *10:5 *150:I 8.55 
*END

*D_NET *11 0.00518973
*CONN
*P mgmt_gpio_in[17] I
*I *151:I I *D gf180mcu_fd_sc_mcu7t5v0__clkbuf_8
*I *112:I I *D gf180mcu_fd_sc_mcu7t5v0__antenna
*CAP
1 mgmt_gpio_in[17] 0.00132357
2 *151:I 1.97598e-05
3 *112:I 0.000286392
4 *11:11 0.00162972
5 *112:I *40:13 0
6 *151:I mgmt_gpio_out_buf[1] 0.000163014
7 *151:I mgmt_gpio_out_buf[2] 4.67226e-05
8 *11:11 mgmt_gpio_out_buf[0] 0.000408504
9 *11:11 mgmt_gpio_out_buf[1] 0.000337818
10 *11:11 mgmt_gpio_out_buf[2] 6.25637e-05
11 *11:11 *90:I 6.47178e-05
12 *11:11 *39:8 6.52443e-05
13 *11:11 *40:13 0.000160765
14 *10:5 *11:11 0.000620939
*RES
1 mgmt_gpio_in[17] *11:11 20.025 
2 *11:11 *112:I 15.21 
3 *11:11 *151:I 4.95 
*END

*D_NET *12 0.0059507
*CONN
*P mgmt_gpio_in[1] I
*I *134:I I *D gf180mcu_fd_sc_mcu7t5v0__clkbuf_8
*I *95:I I *D gf180mcu_fd_sc_mcu7t5v0__antenna
*CAP
1 mgmt_gpio_in[1] 0.00155419
2 *134:I 6.14704e-06
3 *95:I 0.000289114
4 *12:11 0.00184945
5 *134:I mgmt_gpio_in_buf[5] 0.000113035
6 *134:I *15:12 3.42781e-05
7 *12:11 mgmt_gpio_in_buf[5] 0.000328582
8 *12:11 *13:12 0.000878427
9 *12:11 *15:12 0.000125299
10 *94:I *95:I 0
11 *3:8 *12:11 0.000772181
*RES
1 mgmt_gpio_in[1] *12:11 22.545 
2 *12:11 *95:I 15.21 
3 *12:11 *134:I 4.77 
*END

*D_NET *13 0.00861345
*CONN
*P mgmt_gpio_in[2] I
*I *96:I I *D gf180mcu_fd_sc_mcu7t5v0__antenna
*I *135:I I *D gf180mcu_fd_sc_mcu7t5v0__clkbuf_8
*CAP
1 mgmt_gpio_in[2] 0.00200573
2 *96:I 0.000235756
3 *135:I 0
4 *13:12 0.00224149
5 *96:I *98:I 0
6 *96:I *15:12 0
7 *96:I *41:7 0.000758415
8 *13:12 mgmt_gpio_in_buf[1] 0.000572003
9 *13:12 mgmt_gpio_in_buf[3] 0.000161381
10 *13:12 *14:11 0.000801103
11 *13:12 *15:12 0
12 *13:12 *41:7 0.000959136
13 *3:8 *13:12 0
14 *12:11 *13:12 0.000878427
*RES
1 mgmt_gpio_in[2] *13:12 22.995 
2 *13:12 *135:I 9 
3 *13:12 *96:I 10.98 
*END

*D_NET *14 0.00675225
*CONN
*P mgmt_gpio_in[3] I
*I *136:I I *D gf180mcu_fd_sc_mcu7t5v0__clkbuf_8
*I *97:I I *D gf180mcu_fd_sc_mcu7t5v0__antenna
*CAP
1 mgmt_gpio_in[3] 0.00176565
2 *136:I 4.38877e-06
3 *97:I 0.000247282
4 *14:11 0.00201732
5 *97:I *98:I 0
6 *97:I *15:12 0
7 *136:I mgmt_gpio_in_buf[5] 8.15069e-05
8 *136:I mgmt_gpio_in_buf[6] 0.000113035
9 *14:11 mgmt_gpio_in_buf[5] 0.000337818
10 *14:11 mgmt_gpio_in_buf[6] 0.000328582
11 *14:11 *15:12 0.000740267
12 *94:I *97:I 3.75069e-05
13 *94:I *14:11 7.94556e-05
14 *3:8 *14:11 0.000198339
15 *13:12 *14:11 0.000801103
*RES
1 mgmt_gpio_in[3] *14:11 23.985 
2 *14:11 *97:I 15.21 
3 *14:11 *136:I 4.77 
*END

*D_NET *15 0.00817821
*CONN
*P mgmt_gpio_in[4] I
*I *98:I I *D gf180mcu_fd_sc_mcu7t5v0__antenna
*I *137:I I *D gf180mcu_fd_sc_mcu7t5v0__clkbuf_8
*CAP
1 mgmt_gpio_in[4] 0.00173913
2 *98:I 0.000363621
3 *137:I 2.72198e-05
4 *15:12 0.00212997
5 *98:I *41:7 0
6 *137:I mgmt_gpio_in_buf[6] 2.42424e-05
7 *137:I mgmt_gpio_in_buf[7] 4.18254e-05
8 *15:12 mgmt_gpio_in_buf[3] 8.0812e-05
9 *15:12 mgmt_gpio_in_buf[5] 0.000576583
10 *15:12 mgmt_gpio_in_buf[9] 0.00208344
11 *15:12 *16:11 0.000211523
12 *96:I *98:I 0
13 *96:I *15:12 0
14 *97:I *98:I 0
15 *97:I *15:12 0
16 *134:I *15:12 3.42781e-05
17 *12:11 *15:12 0.000125299
18 *13:12 *15:12 0
19 *14:11 *15:12 0.000740267
*RES
1 mgmt_gpio_in[4] *15:12 20.835 
2 *15:12 *137:I 9.27 
3 *15:12 *98:I 10.89 
*END

*D_NET *16 0.00401222
*CONN
*P mgmt_gpio_in[5] I
*I *99:I I *D gf180mcu_fd_sc_mcu7t5v0__antenna
*I *138:I I *D gf180mcu_fd_sc_mcu7t5v0__clkbuf_8
*CAP
1 mgmt_gpio_in[5] 0.00100218
2 *99:I 0.000324376
3 *138:I 0
4 *16:11 0.00132656
5 *99:I mgmt_gpio_in_buf[8] 4.59132e-05
6 *99:I mgmt_gpio_in_buf[9] 8.52275e-06
7 *99:I *100:I 0.000106934
8 *99:I *104:I 0
9 *99:I *18:8 0.000105166
10 *16:11 mgmt_gpio_in_buf[8] 0.000219612
11 *16:11 mgmt_gpio_in_buf[9] 0.000237726
12 *16:11 *104:I 0
13 *16:11 *17:7 0.000161295
14 *16:11 *18:8 0.000262412
15 *15:12 *16:11 0.000211523
*RES
1 mgmt_gpio_in[5] *16:11 16.785 
2 *16:11 *138:I 4.5 
3 *16:11 *99:I 15.48 
*END

*D_NET *17 0.00382822
*CONN
*P mgmt_gpio_in[6] I
*I *100:I I *D gf180mcu_fd_sc_mcu7t5v0__antenna
*I *139:I I *D gf180mcu_fd_sc_mcu7t5v0__clkbuf_8
*CAP
1 mgmt_gpio_in[6] 0.000425254
2 *100:I 0.000310921
3 *139:I 0
4 *17:7 0.000736174
5 *100:I mgmt_gpio_in_buf[8] 0.000410516
6 *100:I *18:8 0.000322475
7 *17:7 mgmt_gpio_in_buf[8] 0.00103626
8 *17:7 *18:8 0.000318397
9 *99:I *100:I 0.000106934
10 *16:11 *17:7 0.000161295
*RES
1 mgmt_gpio_in[6] *17:7 4.815 
2 *17:7 *139:I 4.5 
3 *17:7 *100:I 16.65 
*END

*D_NET *18 0.00480558
*CONN
*P mgmt_gpio_in[7] I
*I *101:I I *D gf180mcu_fd_sc_mcu7t5v0__antenna
*I *140:I I *D gf180mcu_fd_sc_mcu7t5v0__clkbuf_8
*CAP
1 mgmt_gpio_in[7] 0.00122925
2 *101:I 0.000155118
3 *140:I 0
4 *18:8 0.00138437
5 *101:I *40:13 0.000304843
6 *18:8 mgmt_gpio_in_buf[6] 1.82497e-05
7 *18:8 mgmt_gpio_in_buf[7] 0.00012226
8 *18:8 mgmt_gpio_in_buf[8] 0.000138333
9 *18:8 *19:12 0.000185146
10 *18:8 *20:7 0
11 *18:8 *40:13 0.000259553
12 *99:I *18:8 0.000105166
13 *100:I *18:8 0.000322475
14 *16:11 *18:8 0.000262412
15 *17:7 *18:8 0.000318397
*RES
1 mgmt_gpio_in[7] *18:8 14.535 
2 *18:8 *140:I 9 
3 *18:8 *101:I 10.71 
*END

*D_NET *19 0.0029496
*CONN
*P mgmt_gpio_in[8] I
*I *141:I I *D gf180mcu_fd_sc_mcu7t5v0__clkbuf_8
*I *102:I I *D gf180mcu_fd_sc_mcu7t5v0__antenna
*CAP
1 mgmt_gpio_in[8] 0.00070368
2 *141:I 0
3 *102:I 0.000131892
4 *19:12 0.000835572
5 *102:I *39:8 0.000250119
6 *19:12 *20:7 0.000141932
7 *19:12 *39:8 0.000701258
8 *18:8 *19:12 0.000185146
*RES
1 mgmt_gpio_in[8] *19:12 10.935 
2 *19:12 *102:I 10.35 
3 *19:12 *141:I 9 
*END

*D_NET *20 0.00356009
*CONN
*P mgmt_gpio_in[9] I
*I *104:I I *D gf180mcu_fd_sc_mcu7t5v0__antenna
*I *143:I I *D gf180mcu_fd_sc_mcu7t5v0__clkbuf_8
*CAP
1 mgmt_gpio_in[9] 0.000432364
2 *104:I 0.000402563
3 *143:I 0
4 *20:7 0.000834927
5 *104:I mgmt_gpio_in_buf[10] 0.00153017
6 *20:7 mgmt_gpio_in_buf[10] 7.06705e-05
7 *99:I *104:I 0
8 *4:8 *20:7 0.000147462
9 *5:8 *20:7 0
10 *16:11 *104:I 0
11 *18:8 *20:7 0
12 *19:12 *20:7 0.000141932
*RES
1 mgmt_gpio_in[9] *20:7 3.555 
2 *20:7 *143:I 4.5 
3 *20:7 *104:I 8.46 
*END

*D_NET *21 0.00233785
*CONN
*P mgmt_gpio_in_buf[0] O
*I *133:Z O *D gf180mcu_fd_sc_mcu7t5v0__clkbuf_8
*CAP
1 mgmt_gpio_in_buf[0] 0.000886442
2 *133:Z 0.000886442
3 mgmt_gpio_in_buf[0] mgmt_gpio_in_buf[1] 0.000564969
*RES
1 *133:Z mgmt_gpio_in_buf[0] 11.565 
*END

*D_NET *22 0.00689285
*CONN
*P mgmt_gpio_in_buf[10] O
*I *144:Z O *D gf180mcu_fd_sc_mcu7t5v0__clkbuf_8
*CAP
1 mgmt_gpio_in_buf[10] 0.00164217
2 *144:Z 0.00164217
3 mgmt_gpio_in_buf[10] mgmt_gpio_in_buf[11] 0.00103742
4 mgmt_gpio_in_buf[10] mgmt_gpio_in_buf[8] 0
5 mgmt_gpio_in_buf[10] mgmt_gpio_in_buf[9] 0.000811218
6 *104:I mgmt_gpio_in_buf[10] 0.00153017
7 *5:8 mgmt_gpio_in_buf[10] 0.000159029
8 *6:11 mgmt_gpio_in_buf[10] 0
9 *20:7 mgmt_gpio_in_buf[10] 7.06705e-05
*RES
1 *144:Z mgmt_gpio_in_buf[10] 20.925 
*END

*D_NET *23 0.00500772
*CONN
*P mgmt_gpio_in_buf[11] O
*I *145:Z O *D gf180mcu_fd_sc_mcu7t5v0__clkbuf_8
*CAP
1 mgmt_gpio_in_buf[11] 0.00148698
2 *145:Z 0.00148698
3 mgmt_gpio_in_buf[11] mgmt_gpio_in_buf[12] 0.0009727
4 mgmt_gpio_in_buf[11] mgmt_gpio_in_buf[13] 0
5 mgmt_gpio_in_buf[10] mgmt_gpio_in_buf[11] 0.00103742
6 *6:11 mgmt_gpio_in_buf[11] 2.36412e-05
*RES
1 *145:Z mgmt_gpio_in_buf[11] 18.405 
*END

*D_NET *24 0.00457086
*CONN
*P mgmt_gpio_in_buf[12] O
*I *146:Z O *D gf180mcu_fd_sc_mcu7t5v0__clkbuf_8
*CAP
1 mgmt_gpio_in_buf[12] 0.00154154
2 *146:Z 0.00154154
3 mgmt_gpio_in_buf[12] mgmt_gpio_in_buf[13] 0.000471739
4 mgmt_gpio_in_buf[12] mgmt_gpio_in_buf[15] 4.33315e-05
5 mgmt_gpio_in_buf[11] mgmt_gpio_in_buf[12] 0.0009727
*RES
1 *146:Z mgmt_gpio_in_buf[12] 17.505 
*END

*D_NET *25 0.00723905
*CONN
*P mgmt_gpio_in_buf[13] O
*I *147:Z O *D gf180mcu_fd_sc_mcu7t5v0__clkbuf_8
*CAP
1 mgmt_gpio_in_buf[13] 0.00167613
2 *147:Z 0.00167613
3 mgmt_gpio_in_buf[13] mgmt_gpio_in_buf[14] 0.000193187
4 mgmt_gpio_in_buf[13] mgmt_gpio_in_buf[15] 0.000262125
5 mgmt_gpio_in_buf[11] mgmt_gpio_in_buf[13] 0
6 mgmt_gpio_in_buf[12] mgmt_gpio_in_buf[13] 0.000471739
7 *145:I mgmt_gpio_in_buf[13] 3.7384e-05
8 *6:11 mgmt_gpio_in_buf[13] 0.00010295
9 *8:12 mgmt_gpio_in_buf[13] 0.00281942
*RES
1 *147:Z mgmt_gpio_in_buf[13] 20.925 
*END

*D_NET *26 0.00108071
*CONN
*P mgmt_gpio_in_buf[14] O
*I *148:Z O *D gf180mcu_fd_sc_mcu7t5v0__clkbuf_8
*CAP
1 mgmt_gpio_in_buf[14] 0.000271143
2 *148:Z 0.000271143
3 mgmt_gpio_in_buf[14] mgmt_gpio_in_buf[15] 0.000232218
4 mgmt_gpio_in_buf[13] mgmt_gpio_in_buf[14] 0.000193187
5 *8:12 mgmt_gpio_in_buf[14] 0.000113024
*RES
1 *148:Z mgmt_gpio_in_buf[14] 7.425 
*END

*D_NET *27 0.00265409
*CONN
*P mgmt_gpio_in_buf[15] O
*I *149:Z O *D gf180mcu_fd_sc_mcu7t5v0__clkbuf_8
*CAP
1 mgmt_gpio_in_buf[15] 0.000824215
2 *149:Z 0.000824215
3 mgmt_gpio_in_buf[15] mgmt_gpio_in_buf[16] 0.000315636
4 mgmt_gpio_in_buf[15] mgmt_gpio_in_buf[17] 0
5 mgmt_gpio_in_buf[12] mgmt_gpio_in_buf[15] 4.33315e-05
6 mgmt_gpio_in_buf[13] mgmt_gpio_in_buf[15] 0.000262125
7 mgmt_gpio_in_buf[14] mgmt_gpio_in_buf[15] 0.000232218
8 *150:I mgmt_gpio_in_buf[15] 6.52443e-05
9 *8:12 mgmt_gpio_in_buf[15] 8.71059e-05
*RES
1 *149:Z mgmt_gpio_in_buf[15] 20.385 
*END

*D_NET *28 0.00179193
*CONN
*P mgmt_gpio_in_buf[16] O
*I *150:Z O *D gf180mcu_fd_sc_mcu7t5v0__clkbuf_8
*CAP
1 mgmt_gpio_in_buf[16] 0.000568152
2 *150:Z 0.000568152
3 mgmt_gpio_in_buf[16] mgmt_gpio_in_buf[17] 0.000273822
4 mgmt_gpio_in_buf[16] *41:7 3.2451e-05
5 mgmt_gpio_in_buf[15] mgmt_gpio_in_buf[16] 0.000315636
6 *8:12 mgmt_gpio_in_buf[16] 3.37202e-05
*RES
1 *150:Z mgmt_gpio_in_buf[16] 18.585 
*END

*D_NET *29 0.00317651
*CONN
*P mgmt_gpio_in_buf[17] O
*I *151:Z O *D gf180mcu_fd_sc_mcu7t5v0__clkbuf_8
*CAP
1 mgmt_gpio_in_buf[17] 0.000949491
2 *151:Z 0.000949491
3 mgmt_gpio_in_buf[17] mgmt_gpio_out_buf[0] 0.000128293
4 mgmt_gpio_in_buf[17] *45:8 0.000505176
5 mgmt_gpio_in_buf[15] mgmt_gpio_in_buf[17] 0
6 mgmt_gpio_in_buf[16] mgmt_gpio_in_buf[17] 0.000273822
7 *150:I mgmt_gpio_in_buf[17] 0.000305005
8 *10:5 mgmt_gpio_in_buf[17] 6.52355e-05
*RES
1 *151:Z mgmt_gpio_in_buf[17] 13.365 
*END

*D_NET *30 0.00291399
*CONN
*P mgmt_gpio_in_buf[1] O
*I *134:Z O *D gf180mcu_fd_sc_mcu7t5v0__clkbuf_8
*CAP
1 mgmt_gpio_in_buf[1] 0.000730674
2 *134:Z 0.000730674
3 mgmt_gpio_in_buf[1] mgmt_gpio_in_buf[2] 0.000203151
4 mgmt_gpio_in_buf[1] mgmt_gpio_in_buf[3] 0
5 mgmt_gpio_in_buf[0] mgmt_gpio_in_buf[1] 0.000564969
6 *3:8 mgmt_gpio_in_buf[1] 0.000112518
7 *13:12 mgmt_gpio_in_buf[1] 0.000572003
*RES
1 *134:Z mgmt_gpio_in_buf[1] 12.465 
*END

*D_NET *31 0.000867762
*CONN
*P mgmt_gpio_in_buf[2] O
*I *135:Z O *D gf180mcu_fd_sc_mcu7t5v0__clkbuf_8
*CAP
1 mgmt_gpio_in_buf[2] 0.00023073
2 *135:Z 0.00023073
3 mgmt_gpio_in_buf[2] mgmt_gpio_in_buf[3] 0.000203151
4 mgmt_gpio_in_buf[1] mgmt_gpio_in_buf[2] 0.000203151
*RES
1 *135:Z mgmt_gpio_in_buf[2] 7.065 
*END

*D_NET *32 0.00188054
*CONN
*P mgmt_gpio_in_buf[3] O
*I *136:Z O *D gf180mcu_fd_sc_mcu7t5v0__clkbuf_8
*CAP
1 mgmt_gpio_in_buf[3] 0.000584071
2 *136:Z 0.000584071
3 mgmt_gpio_in_buf[3] mgmt_gpio_in_buf[4] 0.000267051
4 mgmt_gpio_in_buf[3] mgmt_gpio_in_buf[5] 0
5 mgmt_gpio_in_buf[1] mgmt_gpio_in_buf[3] 0
6 mgmt_gpio_in_buf[2] mgmt_gpio_in_buf[3] 0.000203151
7 *13:12 mgmt_gpio_in_buf[3] 0.000161381
8 *15:12 mgmt_gpio_in_buf[3] 8.0812e-05
*RES
1 *136:Z mgmt_gpio_in_buf[3] 9.945 
*END

*D_NET *33 0.00146886
*CONN
*P mgmt_gpio_in_buf[4] O
*I *137:Z O *D gf180mcu_fd_sc_mcu7t5v0__clkbuf_8
*CAP
1 mgmt_gpio_in_buf[4] 0.000443868
2 *137:Z 0.000443868
3 mgmt_gpio_in_buf[4] mgmt_gpio_in_buf[5] 0.000314073
4 mgmt_gpio_in_buf[3] mgmt_gpio_in_buf[4] 0.000267051
*RES
1 *137:Z mgmt_gpio_in_buf[4] 8.685 
*END

*D_NET *34 0.00593235
*CONN
*P mgmt_gpio_in_buf[5] O
*I *138:Z O *D gf180mcu_fd_sc_mcu7t5v0__clkbuf_8
*CAP
1 mgmt_gpio_in_buf[5] 0.00102663
2 *138:Z 0.00102663
3 mgmt_gpio_in_buf[5] mgmt_gpio_in_buf[6] 0.00174344
4 mgmt_gpio_in_buf[5] mgmt_gpio_in_buf[9] 0.000384045
5 mgmt_gpio_in_buf[3] mgmt_gpio_in_buf[5] 0
6 mgmt_gpio_in_buf[4] mgmt_gpio_in_buf[5] 0.000314073
7 *134:I mgmt_gpio_in_buf[5] 0.000113035
8 *136:I mgmt_gpio_in_buf[5] 8.15069e-05
9 *12:11 mgmt_gpio_in_buf[5] 0.000328582
10 *14:11 mgmt_gpio_in_buf[5] 0.000337818
11 *15:12 mgmt_gpio_in_buf[5] 0.000576583
*RES
1 *138:Z mgmt_gpio_in_buf[5] 17.505 
*END

*D_NET *35 0.00676779
*CONN
*P mgmt_gpio_in_buf[6] O
*I *139:Z O *D gf180mcu_fd_sc_mcu7t5v0__clkbuf_8
*CAP
1 mgmt_gpio_in_buf[6] 0.00138451
2 *139:Z 0.00138451
3 mgmt_gpio_in_buf[6] mgmt_gpio_in_buf[7] 0.000645643
4 mgmt_gpio_in_buf[6] mgmt_gpio_in_buf[8] 0.00106087
5 mgmt_gpio_in_buf[6] mgmt_gpio_in_buf[9] 6.47178e-05
6 mgmt_gpio_in_buf[5] mgmt_gpio_in_buf[6] 0.00174344
7 *136:I mgmt_gpio_in_buf[6] 0.000113035
8 *137:I mgmt_gpio_in_buf[6] 2.42424e-05
9 *14:11 mgmt_gpio_in_buf[6] 0.000328582
10 *18:8 mgmt_gpio_in_buf[6] 1.82497e-05
*RES
1 *139:Z mgmt_gpio_in_buf[6] 19.575 
*END

*D_NET *36 0.00399899
*CONN
*P mgmt_gpio_in_buf[7] O
*I *140:Z O *D gf180mcu_fd_sc_mcu7t5v0__clkbuf_8
*CAP
1 mgmt_gpio_in_buf[7] 0.00121486
2 *140:Z 0.00121486
3 mgmt_gpio_in_buf[7] mgmt_gpio_in_buf[8] 0.000759533
4 mgmt_gpio_in_buf[6] mgmt_gpio_in_buf[7] 0.000645643
5 *137:I mgmt_gpio_in_buf[7] 4.18254e-05
6 *18:8 mgmt_gpio_in_buf[7] 0.00012226
*RES
1 *140:Z mgmt_gpio_in_buf[7] 15.345 
*END

*D_NET *37 0.00816633
*CONN
*P mgmt_gpio_in_buf[8] O
*I *141:Z O *D gf180mcu_fd_sc_mcu7t5v0__clkbuf_8
*CAP
1 mgmt_gpio_in_buf[8] 0.00184762
2 *141:Z 0.00184762
3 mgmt_gpio_in_buf[8] mgmt_gpio_in_buf[9] 0.000800068
4 mgmt_gpio_in_buf[10] mgmt_gpio_in_buf[8] 0
5 mgmt_gpio_in_buf[6] mgmt_gpio_in_buf[8] 0.00106087
6 mgmt_gpio_in_buf[7] mgmt_gpio_in_buf[8] 0.000759533
7 *99:I mgmt_gpio_in_buf[8] 4.59132e-05
8 *100:I mgmt_gpio_in_buf[8] 0.000410516
9 *16:11 mgmt_gpio_in_buf[8] 0.000219612
10 *17:7 mgmt_gpio_in_buf[8] 0.00103626
11 *18:8 mgmt_gpio_in_buf[8] 0.000138333
*RES
1 *141:Z mgmt_gpio_in_buf[8] 31.905 
*END

*D_NET *38 0.00922342
*CONN
*P mgmt_gpio_in_buf[9] O
*I *143:Z O *D gf180mcu_fd_sc_mcu7t5v0__clkbuf_8
*CAP
1 mgmt_gpio_in_buf[9] 0.00172352
2 *143:Z 0.00172352
3 mgmt_gpio_in_buf[9] *40:13 0.00138665
4 mgmt_gpio_in_buf[10] mgmt_gpio_in_buf[9] 0.000811218
5 mgmt_gpio_in_buf[5] mgmt_gpio_in_buf[9] 0.000384045
6 mgmt_gpio_in_buf[6] mgmt_gpio_in_buf[9] 6.47178e-05
7 mgmt_gpio_in_buf[8] mgmt_gpio_in_buf[9] 0.000800068
8 *99:I mgmt_gpio_in_buf[9] 8.52275e-06
9 *15:12 mgmt_gpio_in_buf[9] 0.00208344
10 *16:11 mgmt_gpio_in_buf[9] 0.000237726
*RES
1 *143:Z mgmt_gpio_in_buf[9] 32.445 
*END

*D_NET *39 0.00748327
*CONN
*P mgmt_gpio_oeb[0] I
*I *90:I I *D gf180mcu_fd_sc_mcu7t5v0__antenna
*I *129:I I *D gf180mcu_fd_sc_mcu7t5v0__clkbuf_8
*CAP
1 mgmt_gpio_oeb[0] 0.0017908
2 *90:I 0.000135792
3 *129:I 0
4 *39:8 0.00192659
5 *90:I mgmt_gpio_out_buf[0] 0.00042855
6 *39:8 mgmt_gpio_out_buf[0] 0.000419325
7 *102:I *39:8 0.000250119
8 *108:I *39:8 0.000738229
9 *4:8 *39:8 0.000231428
10 *7:8 *39:8 0.00073121
11 *11:11 *90:I 6.47178e-05
12 *11:11 *39:8 6.52443e-05
13 *19:12 *39:8 0.000701258
*RES
1 mgmt_gpio_oeb[0] *39:8 18.315 
2 *39:8 *129:I 4.5 
3 *39:8 *90:I 5.94 
*END

*D_NET *40 0.0105553
*CONN
*P mgmt_gpio_oeb[1] I
*I *130:I I *D gf180mcu_fd_sc_mcu7t5v0__clkbuf_8
*I *91:I I *D gf180mcu_fd_sc_mcu7t5v0__antenna
*CAP
1 mgmt_gpio_oeb[1] 0.00302291
2 *130:I 0.000208435
3 *91:I 0.000102082
4 *40:13 0.00333343
5 *91:I *61:12 7.20415e-05
6 *91:I *62:15 0.000104841
7 *130:I mgmt_gpio_out_buf[11] 2.45701e-05
8 *130:I mgmt_gpio_out_buf[16] 0.000468823
9 *130:I *46:5 0.00017298
10 *130:I *62:15 0
11 *40:13 mgmt_gpio_out_buf[16] 0.000726804
12 *40:13 *57:14 0.000206536
13 *40:13 *59:11 0
14 mgmt_gpio_in_buf[9] *40:13 0.00138665
15 *101:I *40:13 0.000304843
16 *112:I *40:13 0
17 *11:11 *40:13 0.000160765
18 *18:8 *40:13 0.000259553
*RES
1 mgmt_gpio_oeb[1] *40:13 21.465 
2 *40:13 *91:I 9.81 
3 *40:13 *130:I 10.62 
*END

*D_NET *41 0.0102148
*CONN
*P mgmt_gpio_oeb[2] I
*I *93:I I *D gf180mcu_fd_sc_mcu7t5v0__antenna
*I *132:I I *D gf180mcu_fd_sc_mcu7t5v0__clkbuf_8
*CAP
1 mgmt_gpio_oeb[2] 0.00291023
2 *93:I 0
3 *132:I 0.000212974
4 *41:7 0.00312321
5 *132:I *61:12 0.000663834
6 *132:I *62:15 7.35437e-05
7 *41:7 *103:I 0
8 *41:7 *55:8 0
9 mgmt_gpio_in_buf[16] *41:7 3.2451e-05
10 *96:I *41:7 0.000758415
11 *98:I *41:7 0
12 *109:I *41:7 0.000770163
13 *8:12 *41:7 0.000710854
14 *13:12 *41:7 0.000959136
*RES
1 mgmt_gpio_oeb[2] *41:7 23.265 
2 *41:7 *132:I 6.48 
3 *41:7 *93:I 4.5 
*END

*D_NET *42 0.00531882
*CONN
*P mgmt_gpio_oeb_buf[0] O
*I *129:Z O *D gf180mcu_fd_sc_mcu7t5v0__clkbuf_8
*CAP
1 mgmt_gpio_oeb_buf[0] 0.000959089
2 *129:Z 0.000959089
3 mgmt_gpio_oeb_buf[0] mgmt_gpio_out_buf[10] 0.0015111
4 mgmt_gpio_oeb_buf[0] mgmt_gpio_out_buf[5] 0.000347043
5 mgmt_gpio_oeb_buf[0] mgmt_gpio_out_buf[6] 0.000116165
6 mgmt_gpio_oeb_buf[0] *82:I 0.000383654
7 mgmt_gpio_oeb_buf[0] *121:I 0.00104268
*RES
1 *129:Z mgmt_gpio_oeb_buf[0] 18.315 
*END

*D_NET *43 0.0015086