*SPEF "IEEE 1481-1999"
*DESIGN "chip_io"
*DATE "Tue Oct 17 02:22:17 2023"
*VENDOR "Synopsys Inc."
*PROGRAM "StarRC"
*VERSION "U-2022.12-SP4"
*DESIGN_FLOW "PIN_CAP NONE" "NAME_SCOPE LOCAL"
*DIVIDER /
*DELIMITER :
*BUS_DELIMITER ()
*T_UNIT 1.0 NS
*C_UNIT 1.0 FF
*R_UNIT 1.0 OHM
*L_UNIT 1.0 HENRY

// COMMENTS

// CORNER_NAME 
// OPERATING_TEMPERATURE 25
// GLOBAL_TEMPERATURE 25
// TCAD_GRD_FILE /home/passant/caravel-gf180mcu/scripts/gf180mcu-tech/gf180mcu_1p5m_1tm_11k_sp_smim_OPTB_typ.nxtgrd
//   TCAD_TIME_STAMP Tue Dec 26 18:36:27 2017
//   TCADGRD_VERSION 75
// galaxy_comments_begin
//   local_nodeid
// galaxy_comments_end

*NAME_MAP
*463 resetb
*464 flash_csb
*465 flash_clk
*466 flash_io0
*467 flash_io1
*468 gpio
*469 clock
*470 resetb_core
*471 clock_core
*472 flash_clk_core
*473 flash_clk_oe_core
*474 flash_csb_core
*475 flash_csb_oe_core
*476 flash_io0_ie_core
*477 flash_io0_do_core
*478 flash_io0_oe_core
*479 flash_io0_di_core
*480 flash_io1_ie_core
*481 flash_io1_do_core
*482 flash_io1_oe_core
*483 flash_io1_di_core
*484 gpio_schmitt_select
*485 gpio_pu_select
*486 gpio_drive_select_core\[0\]
*487 gpio_drive_select_core\[1\]
*488 gpio_pd_select
*489 gpio_inen_core
*490 gpio_slew_select
*491 gpio_out_core
*492 gpio_in_core
*493 gpio_outen_core
*494 mprj_io\[24\]
*495 mprj_io\[25\]
*496 mprj_io\[26\]
*497 mprj_io\[27\]
*498 mprj_io\[28\]
*499 mprj_io\[29\]
*500 mprj_io\[30\]
*501 mprj_io\[31\]
*502 mprj_io\[32\]
*503 mprj_io\[33\]
*504 mprj_io\[34\]
*505 mprj_io\[35\]
*506 mprj_io\[36\]
*507 mprj_io\[37\]
*508 mprj_io_in\[37\]
*509 mprj_io_outen\[37\]
*510 mprj_io_out\[37\]
*511 mprj_io_slew_select\[37\]
*512 mprj_io_inen\[37\]
*513 mprj_io_pd_select\[37\]
*514 mprj_io_drive_sel\[75\]
*515 mprj_io_drive_sel\[74\]
*516 mprj_io_pu_select\[37\]
*517 mprj_io_schmitt_select\[37\]
*518 mprj_io_in\[36\]
*519 mprj_io_outen\[36\]
*520 mprj_io_out\[36\]
*521 mprj_io_slew_select\[36\]
*522 mprj_io_inen\[36\]
*523 mprj_io_pd_select\[36\]
*524 mprj_io_drive_sel\[73\]
*525 mprj_io_drive_sel\[72\]
*526 mprj_io_pu_select\[36\]
*527 mprj_io_schmitt_select\[36\]
*528 mprj_io_in\[35\]
*529 mprj_io_outen\[35\]
*530 mprj_io_out\[35\]
*531 mprj_io_slew_select\[35\]
*532 mprj_io_inen\[35\]
*533 mprj_io_pd_select\[35\]
*534 mprj_io_drive_sel\[71\]
*535 mprj_io_drive_sel\[70\]
*536 mprj_io_pu_select\[35\]
*537 mprj_io_schmitt_select\[35\]
*538 mprj_io_in\[34\]
*539 mprj_io_outen\[34\]
*540 mprj_io_out\[34\]
*541 mprj_io_slew_select\[34\]
*542 mprj_io_inen\[34\]
*543 mprj_io_pd_select\[34\]
*544 mprj_io_drive_sel\[69\]
*545 mprj_io_drive_sel\[68\]
*546 mprj_io_pu_select\[34\]
*547 mprj_io_schmitt_select\[34\]
*548 mprj_io_in\[33\]
*549 mprj_io_outen\[33\]
*550 mprj_io_out\[33\]
*551 mprj_io_slew_select\[33\]
*552 mprj_io_inen\[33\]
*553 mprj_io_pd_select\[33\]
*554 mprj_io_drive_sel\[67\]
*555 mprj_io_drive_sel\[66\]
*556 mprj_io_pu_select\[33\]
*557 mprj_io_schmitt_select\[33\]
*558 mprj_io_in\[32\]
*559 mprj_io_outen\[32\]
*560 mprj_io_out\[32\]
*561 mprj_io_slew_select\[32\]
*562 mprj_io_inen\[32\]
*563 mprj_io_pd_select\[32\]
*564 mprj_io_drive_sel\[65\]
*565 mprj_io_drive_sel\[64\]
*566 mprj_io_pu_select\[32\]
*567 mprj_io_schmitt_select\[32\]
*568 mprj_io_in\[31\]
*569 mprj_io_outen\[31\]
*570 mprj_io_out\[31\]
*571 mprj_io_slew_select\[31\]
*572 mprj_io_inen\[31\]
*573 mprj_io_pd_select\[31\]
*574 mprj_io_drive_sel\[63\]
*575 mprj_io_drive_sel\[62\]
*576 mprj_io_pu_select\[31\]
*577 mprj_io_schmitt_select\[31\]
*578 mprj_io_in\[30\]
*579 mprj_io_outen\[30\]
*580 mprj_io_out\[30\]
*581 mprj_io_slew_select\[30\]
*582 mprj_io_inen\[30\]
*583 mprj_io_pd_select\[30\]
*584 mprj_io_pu_select\[30\]
*585 mprj_io_schmitt_select\[30\]
*586 mprj_io_in\[29\]
*587 mprj_io_outen\[29\]
*588 mprj_io_out\[29\]
*589 mprj_io_slew_select\[29\]
*590 mprj_io_inen\[29\]
*591 mprj_io_pd_select\[29\]
*592 mprj_io_drive_sel\[59\]
*593 mprj_io_drive_sel\[58\]
*594 mprj_io_pu_select\[29\]
*595 mprj_io_schmitt_select\[29\]
*596 mprj_io_in\[28\]
*597 mprj_io_outen\[28\]
*598 mprj_io_out\[28\]
*599 mprj_io_slew_select\[28\]
*600 mprj_io_inen\[28\]
*601 mprj_io_pd_select\[28\]
*602 mprj_io_drive_sel\[57\]
*603 mprj_io_drive_sel\[56\]
*604 mprj_io_pu_select\[28\]
*605 mprj_io_schmitt_select\[28\]
*606 mprj_io_in\[27\]
*607 mprj_io_outen\[27\]
*608 mprj_io_out\[27\]
*609 mprj_io_slew_select\[27\]
*610 mprj_io_inen\[27\]
*611 mprj_io_pd_select\[27\]
*612 mprj_io_drive_sel\[55\]
*613 mprj_io_drive_sel\[54\]
*614 mprj_io_pu_select\[27\]
*615 mprj_io_schmitt_select\[27\]
*616 mprj_io_in\[26\]
*617 mprj_io_outen\[26\]
*618 mprj_io_out\[26\]
*619 mprj_io_slew_select\[26\]
*620 mprj_io_inen\[26\]
*621 mprj_io_pd_select\[26\]
*622 mprj_io_drive_sel\[53\]
*623 mprj_io_drive_sel\[52\]
*624 mprj_io_pu_select\[26\]
*625 mprj_io_schmitt_select\[26\]
*626 mprj_io_in\[25\]
*627 mprj_io_outen\[25\]
*628 mprj_io_out\[25\]
*629 mprj_io_slew_select\[25\]
*630 mprj_io_inen\[25\]
*631 mprj_io_pd_select\[25\]
*632 mprj_io_drive_sel\[51\]
*633 mprj_io_pu_select\[25\]
*634 mprj_io_schmitt_select\[25\]
*635 mprj_io_in\[24\]
*636 mprj_io_outen\[24\]
*637 mprj_io_out\[24\]
*638 mprj_io_slew_select\[24\]
*639 mprj_io_inen\[24\]
*640 mprj_io_pd_select\[24\]
*641 mprj_io_drive_sel\[49\]
*642 mprj_io_drive_sel\[48\]
*643 mprj_io_pu_select\[24\]
*644 mprj_io_schmitt_select\[24\]
*645 mprj_io\[0\]
*646 mprj_io\[1\]
*647 mprj_io\[2\]
*648 mprj_io\[3\]
*649 mprj_io\[4\]
*650 mprj_io\[5\]
*651 mprj_io\[6\]
*652 mprj_io\[7\]
*653 mprj_io\[8\]
*654 mprj_io\[9\]
*655 mprj_io\[10\]
*656 mprj_io\[11\]
*657 mprj_io\[12\]
*658 mprj_io\[13\]
*659 mprj_io\[14\]
*660 mprj_io\[15\]
*661 mprj_io\[16\]
*662 mprj_io\[17\]
*663 mprj_io\[18\]
*664 mprj_io\[19\]
*665 mprj_io\[20\]
*666 mprj_io\[21\]
*667 mprj_io\[22\]
*668 mprj_io\[23\]
*669 mprj_io_schmitt_select\[0\]
*670 mprj_io_pu_select\[0\]
*671 mprj_io_drive_sel\[0\]
*672 mprj_io_drive_sel\[1\]
*673 mprj_io_pd_select\[0\]
*674 mprj_io_inen\[0\]
*675 mprj_io_slew_select\[0\]
*676 mprj_io_out\[0\]
*677 mprj_io_outen\[0\]
*678 mprj_io_in\[0\]
*679 mprj_io_schmitt_select\[1\]
*680 mprj_io_pu_select\[1\]
*681 mprj_io_drive_sel\[2\]
*682 mprj_io_drive_sel\[3\]
*683 mprj_io_pd_select\[1\]
*684 mprj_io_inen\[1\]
*685 mprj_io_slew_select\[1\]
*686 mprj_io_out\[1\]
*687 mprj_io_outen\[1\]
*688 mprj_io_in\[1\]
*689 mprj_io_in\[2\]
*690 mprj_io_outen\[2\]
*691 mprj_io_out\[2\]
*692 mprj_io_slew_select\[2\]
*693 mprj_io_inen\[2\]
*694 mprj_io_pd_select\[2\]
*695 mprj_io_pu_select\[2\]
*696 mprj_io_schmitt_select\[2\]
*697 mprj_io_in\[3\]
*698 mprj_io_outen\[3\]
*699 mprj_io_out\[3\]
*700 mprj_io_slew_select\[3\]
*701 mprj_io_inen\[3\]
*702 mprj_io_pd_select\[3\]
*703 mprj_io_pu_select\[3\]
*704 mprj_io_schmitt_select\[3\]
*705 mprj_io_in\[4\]
*706 mprj_io_outen\[4\]
*707 mprj_io_out\[4\]
*708 mprj_io_slew_select\[4\]
*709 mprj_io_inen\[4\]
*710 mprj_io_pd_select\[4\]
*711 mprj_io_pu_select\[4\]
*712 mprj_io_schmitt_select\[4\]
*713 mprj_io_in\[5\]
*714 mprj_io_outen\[5\]
*715 mprj_io_out\[5\]
*716 mprj_io_slew_select\[5\]
*717 mprj_io_inen\[5\]
*718 mprj_io_pd_select\[5\]
*719 mprj_io_pu_select\[5\]
*720 mprj_io_schmitt_select\[5\]
*721 mprj_io_in\[6\]
*722 mprj_io_outen\[6\]
*723 mprj_io_out\[6\]
*724 mprj_io_slew_select\[6\]
*725 mprj_io_inen\[6\]
*726 mprj_io_pd_select\[6\]
*727 mprj_io_pu_select\[6\]
*728 mprj_io_schmitt_select\[6\]
*729 mprj_io_in\[7\]
*730 mprj_io_outen\[7\]
*731 mprj_io_out\[7\]
*732 mprj_io_slew_select\[7\]
*733 mprj_io_inen\[7\]
*734 mprj_io_pd_select\[7\]
*735 mprj_io_pu_select\[7\]
*736 mprj_io_schmitt_select\[7\]
*737 mprj_io_in\[8\]
*738 mprj_io_outen\[8\]
*739 mprj_io_out\[8\]
*740 mprj_io_slew_select\[8\]
*741 mprj_io_inen\[8\]
*742 mprj_io_pd_select\[8\]
*743 mprj_io_pu_select\[8\]
*744 mprj_io_schmitt_select\[8\]
*745 mprj_io_in\[9\]
*746 mprj_io_outen\[9\]
*747 mprj_io_out\[9\]
*748 mprj_io_slew_select\[9\]
*749 mprj_io_inen\[9\]
*750 mprj_io_pd_select\[9\]
*751 mprj_io_pu_select\[9\]
*752 mprj_io_schmitt_select\[9\]
*753 mprj_io_in\[10\]
*754 mprj_io_outen\[10\]
*755 mprj_io_out\[10\]
*756 mprj_io_slew_select\[10\]
*757 mprj_io_inen\[10\]
*758 mprj_io_pd_select\[10\]
*759 mprj_io_pu_select\[10\]
*760 mprj_io_schmitt_select\[10\]
*761 mprj_io_in\[11\]
*762 mprj_io_outen\[11\]
*763 mprj_io_out\[11\]
*764 mprj_io_slew_select\[11\]
*765 mprj_io_inen\[11\]
*766 mprj_io_pd_select\[11\]
*767 mprj_io_pu_select\[11\]
*768 mprj_io_schmitt_select\[11\]
*769 mprj_io_schmitt_select\[14\]
*770 mprj_io_pu_select\[14\]
*771 mprj_io_drive_sel\[28\]
*772 mprj_io_drive_sel\[29\]
*773 mprj_io_pd_select\[14\]
*774 mprj_io_inen\[14\]
*775 mprj_io_slew_select\[14\]
*776 mprj_io_out\[14\]
*777 mprj_io_outen\[14\]
*778 mprj_io_in\[14\]
*779 mprj_io_schmitt_select\[15\]
*780 mprj_io_pu_select\[15\]
*781 mprj_io_drive_sel\[30\]
*782 mprj_io_drive_sel\[31\]
*783 mprj_io_pd_select\[15\]
*784 mprj_io_inen\[15\]
*785 mprj_io_slew_select\[15\]
*786 mprj_io_out\[15\]
*787 mprj_io_outen\[15\]
*788 mprj_io_in\[15\]
*789 mprj_io_schmitt_select\[16\]
*790 mprj_io_pu_select\[16\]
*791 mprj_io_drive_sel\[32\]
*792 mprj_io_drive_sel\[33\]
*793 mprj_io_pd_select\[16\]
*794 mprj_io_inen\[16\]
*795 mprj_io_slew_select\[16\]
*796 mprj_io_out\[16\]
*797 mprj_io_outen\[16\]
*798 mprj_io_in\[16\]
*799 mprj_io_schmitt_select\[17\]
*800 mprj_io_pu_select\[17\]
*801 mprj_io_drive_sel\[34\]
*802 mprj_io_drive_sel\[35\]
*803 mprj_io_pd_select\[17\]
*804 mprj_io_inen\[17\]
*805 mprj_io_slew_select\[17\]
*806 mprj_io_out\[17\]
*807 mprj_io_outen\[17\]
*808 mprj_io_in\[17\]
*809 mprj_io_schmitt_select\[18\]
*810 mprj_io_pu_select\[18\]
*811 mprj_io_drive_sel\[36\]
*812 mprj_io_drive_sel\[37\]
*813 mprj_io_pd_select\[18\]
*814 mprj_io_inen\[18\]
*815 mprj_io_slew_select\[18\]
*816 mprj_io_out\[18\]
*817 mprj_io_outen\[18\]
*818 mprj_io_in\[18\]
*819 mprj_io_schmitt_select\[19\]
*820 mprj_io_pu_select\[19\]
*821 mprj_io_drive_sel\[38\]
*822 mprj_io_drive_sel\[39\]
*823 mprj_io_pd_select\[19\]
*824 mprj_io_inen\[19\]
*825 mprj_io_slew_select\[19\]
*826 mprj_io_out\[19\]
*827 mprj_io_outen\[19\]
*828 mprj_io_in\[19\]
*829 mprj_io_schmitt_select\[20\]
*830 mprj_io_pu_select\[20\]
*831 mprj_io_drive_sel\[40\]
*832 mprj_io_drive_sel\[41\]
*833 mprj_io_pd_select\[20\]
*834 mprj_io_inen\[20\]
*835 mprj_io_slew_select\[20\]
*836 mprj_io_out\[20\]
*837 mprj_io_outen\[20\]
*838 mprj_io_in\[20\]
*839 mprj_io_schmitt_select\[21\]
*840 mprj_io_pu_select\[21\]
*841 mprj_io_drive_sel\[42\]
*842 mprj_io_drive_sel\[43\]
*843 mprj_io_pd_select\[21\]
*844 mprj_io_inen\[21\]
*845 mprj_io_slew_select\[21\]
*846 mprj_io_out\[21\]
*847 mprj_io_outen\[21\]
*848 mprj_io_in\[21\]
*849 mprj_io_schmitt_select\[22\]
*850 mprj_io_pu_select\[22\]
*851 mprj_io_drive_sel\[44\]
*852 mprj_io_drive_sel\[45\]
*853 mprj_io_pd_select\[22\]
*854 mprj_io_inen\[22\]
*855 mprj_io_slew_select\[22\]
*856 mprj_io_out\[22\]
*857 mprj_io_outen\[22\]
*858 mprj_io_in\[22\]
*859 mprj_io_schmitt_select\[23\]
*860 mprj_io_pu_select\[23\]
*861 mprj_io_drive_sel\[46\]
*862 mprj_io_drive_sel\[47\]
*863 mprj_io_pd_select\[23\]
*864 mprj_io_inen\[23\]
*865 mprj_io_slew_select\[23\]
*866 mprj_io_out\[23\]
*867 mprj_io_outen\[23\]
*868 mprj_io_in\[23\]
*869 const_zero\[5\]
*870 const_zero\[4\]
*871 const_zero\[3\]
*872 const_zero\[2\]
*873 const_zero\[1\]
*874 const_zero\[0\]
*875 const_one\[1\]
*876 const_one\[0\]
*877 mprj_io_in\[12\]
*878 mprj_io_outen\[12\]
*879 mprj_io_out\[12\]
*880 mprj_io_slew_select\[12\]
*881 mprj_io_inen\[12\]
*882 mprj_io_pd_select\[12\]
*883 mprj_io_pu_select\[12\]
*884 mprj_io_schmitt_select\[12\]
*885 mprj_io_in\[13\]
*886 mprj_io_outen\[13\]
*887 mprj_io_out\[13\]
*888 mprj_io_slew_select\[13\]
*889 mprj_io_inen\[13\]
*890 mprj_io_pd_select\[13\]
*891 mprj_io_drive_sel\[27\]
*892 mprj_io_drive_sel\[26\]
*893 mprj_io_pu_select\[13\]
*894 mprj_io_schmitt_select\[13\]
*895 mprj_io_drive_sel\[4\]
*896 mprj_io_drive_sel\[5\]
*897 mprj_io_drive_sel\[6\]
*898 mprj_io_drive_sel\[7\]
*899 mprj_io_drive_sel\[8\]
*900 mprj_io_drive_sel\[9\]
*901 mprj_io_drive_sel\[10\]
*902 mprj_io_drive_sel\[11\]
*903 mprj_io_drive_sel\[12\]
*904 mprj_io_drive_sel\[13\]
*905 mprj_io_drive_sel\[14\]
*906 mprj_io_drive_sel\[15\]
*907 mprj_io_drive_sel\[16\]
*908 mprj_io_drive_sel\[17\]
*909 mprj_io_drive_sel\[18\]
*910 mprj_io_drive_sel\[19\]
*911 mprj_io_drive_sel\[20\]
*912 mprj_io_drive_sel\[21\]
*913 mprj_io_drive_sel\[22\]
*914 mprj_io_drive_sel\[23\]
*915 mprj_io_drive_sel\[24\]
*916 mprj_io_drive_sel\[25\]
*917 mprj_io_drive_sel\[50\]
*918 mprj_io_drive_sel\[61\]
*919 mprj_io_drive_sel\[60\]
*920 flash_clk_pad
*921 flash_csb_pad
*922 flash_io0_pad
*923 flash_io1_pad
*924 mgmt_clock_input_pad
*925 mgmt_gpio_pad
*926 mprj_pads\[0\]
*927 mprj_pads\[10\]
*928 mprj_pads\[11\]
*929 mprj_pads\[12\]
*930 mprj_pads\[13\]
*931 mprj_pads\[14\]
*932 mprj_pads\[15\]
*933 mprj_pads\[16\]
*934 mprj_pads\[17\]
*935 mprj_pads\[18\]
*936 mprj_pads\[19\]
*937 mprj_pads\[1\]
*938 mprj_pads\[20\]
*939 mprj_pads\[21\]
*940 mprj_pads\[22\]
*941 mprj_pads\[23\]
*942 mprj_pads\[24\]
*943 mprj_pads\[25\]
*944 mprj_pads\[26\]
*945 mprj_pads\[27\]
*946 mprj_pads\[28\]
*947 mprj_pads\[29\]
*948 mprj_pads\[2\]
*949 mprj_pads\[30\]
*950 mprj_pads\[31\]
*951 mprj_pads\[32\]
*952 mprj_pads\[33\]
*953 mprj_pads\[34\]
*954 mprj_pads\[35\]
*955 mprj_pads\[36\]
*956 mprj_pads\[37\]
*957 mprj_pads\[3\]
*958 mprj_pads\[4\]
*959 mprj_pads\[5\]
*960 mprj_pads\[6\]
*961 mprj_pads\[7\]
*962 mprj_pads\[8\]
*963 mprj_pads\[9\]
*964 resetb_pad
*2 resetb
*3 flash_csb
*4 flash_clk
*5 flash_io0
*6 flash_io1
*7 gpio
*9 clock
*10 resetb_core
*11 clock_core
*12 flash_clk_core
*13 flash_clk_oe_core
*14 flash_csb_core
*15 flash_csb_oe_core
*16 flash_io0_ie_core
*17 flash_io0_do_core
*18 flash_io0_oe_core
*19 flash_io0_di_core
*20 flash_io1_ie_core
*21 flash_io1_do_core
*22 flash_io1_oe_core
*23 flash_io1_di_core
*24 gpio_schmitt_select
*25 gpio_pu_select
*26 gpio_drive_select_core\[0\]
*27 gpio_drive_select_core\[1\]
*28 gpio_pd_select
*29 gpio_inen_core
*30 gpio_slew_select
*31 gpio_out_core
*32 gpio_in_core
*33 gpio_outen_core
*34 mprj_io\[24\]
*35 mprj_io\[25\]
*36 mprj_io\[26\]
*37 mprj_io\[27\]
*38 mprj_io\[28\]
*39 mprj_io\[29\]
*40 mprj_io\[30\]
*41 mprj_io\[31\]
*42 mprj_io\[32\]
*43 mprj_io\[33\]
*44 mprj_io\[34\]
*45 mprj_io\[35\]
*46 mprj_io\[36\]
*47 mprj_io\[37\]
*48 mprj_io_in\[37\]
*49 mprj_io_outen\[37\]
*50 mprj_io_out\[37\]
*51 mprj_io_slew_select\[37\]
*52 mprj_io_inen\[37\]
*53 mprj_io_pd_select\[37\]
*54 mprj_io_drive_sel\[75\]
*55 mprj_io_drive_sel\[74\]
*56 mprj_io_pu_select\[37\]
*57 mprj_io_schmitt_select\[37\]
*58 mprj_io_in\[36\]
*59 mprj_io_outen\[36\]
*60 mprj_io_out\[36\]
*61 mprj_io_slew_select\[36\]
*62 mprj_io_inen\[36\]
*63 mprj_io_pd_select\[36\]
*64 mprj_io_drive_sel\[73\]
*65 mprj_io_drive_sel\[72\]
*66 mprj_io_pu_select\[36\]
*67 mprj_io_schmitt_select\[36\]
*68 mprj_io_in\[35\]
*69 mprj_io_outen\[35\]
*70 mprj_io_out\[35\]
*71 mprj_io_slew_select\[35\]
*72 mprj_io_inen\[35\]
*73 mprj_io_pd_select\[35\]
*74 mprj_io_drive_sel\[71\]
*75 mprj_io_drive_sel\[70\]
*76 mprj_io_pu_select\[35\]
*77 mprj_io_schmitt_select\[35\]
*78 mprj_io_in\[34\]
*79 mprj_io_outen\[34\]
*80 mprj_io_out\[34\]
*81 mprj_io_slew_select\[34\]
*82 mprj_io_inen\[34\]
*83 mprj_io_pd_select\[34\]
*84 mprj_io_drive_sel\[69\]
*85 mprj_io_drive_sel\[68\]
*86 mprj_io_pu_select\[34\]
*87 mprj_io_schmitt_select\[34\]
*88 mprj_io_in\[33\]
*89 mprj_io_outen\[33\]
*90 mprj_io_out\[33\]
*91 mprj_io_slew_select\[33\]
*92 mprj_io_inen\[33\]
*93 mprj_io_pd_select\[33\]
*94 mprj_io_drive_sel\[67\]
*95 mprj_io_drive_sel\[66\]
*96 mprj_io_pu_select\[33\]
*97 mprj_io_schmitt_select\[33\]
*98 mprj_io_in\[32\]
*99 mprj_io_outen\[32\]
*100 mprj_io_out\[32\]
*101 mprj_io_slew_select\[32\]
*102 mprj_io_inen\[32\]
*103 mprj_io_pd_select\[32\]
*104 mprj_io_drive_sel\[65\]
*105 mprj_io_drive_sel\[64\]
*106 mprj_io_pu_select\[32\]
*107 mprj_io_schmitt_select\[32\]
*108 mprj_io_in\[31\]
*109 mprj_io_outen\[31\]
*110 mprj_io_out\[31\]
*111 mprj_io_slew_select\[31\]
*112 mprj_io_inen\[31\]
*113 mprj_io_pd_select\[31\]
*114 mprj_io_drive_sel\[63\]
*115 mprj_io_drive_sel\[62\]
*116 mprj_io_pu_select\[31\]
*117 mprj_io_schmitt_select\[31\]
*118 mprj_io_in\[30\]
*119 mprj_io_outen\[30\]
*120 mprj_io_out\[30\]
*121 mprj_io_slew_select\[30\]
*122 mprj_io_inen\[30\]
*123 mprj_io_pd_select\[30\]
*124 mprj_io_pu_select\[30\]
*125 mprj_io_schmitt_select\[30\]
*126 mprj_io_in\[29\]
*127 mprj_io_outen\[29\]
*128 mprj_io_out\[29\]
*129 mprj_io_slew_select\[29\]
*130 mprj_io_inen\[29\]
*131 mprj_io_pd_select\[29\]
*132 mprj_io_drive_sel\[59\]
*133 mprj_io_drive_sel\[58\]
*134 mprj_io_pu_select\[29\]
*135 mprj_io_schmitt_select\[29\]
*136 mprj_io_in\[28\]
*137 mprj_io_outen\[28\]
*138 mprj_io_out\[28\]
*139 mprj_io_slew_select\[28\]
*140 mprj_io_inen\[28\]
*141 mprj_io_pd_select\[28\]
*142 mprj_io_drive_sel\[57\]
*143 mprj_io_drive_sel\[56\]
*144 mprj_io_pu_select\[28\]
*145 mprj_io_schmitt_select\[28\]
*146 mprj_io_in\[27\]
*147 mprj_io_outen\[27\]
*148 mprj_io_out\[27\]
*149 mprj_io_slew_select\[27\]
*150 mprj_io_inen\[27\]
*151 mprj_io_pd_select\[27\]
*152 mprj_io_drive_sel\[55\]
*153 mprj_io_drive_sel\[54\]
*154 mprj_io_pu_select\[27\]
*155 mprj_io_schmitt_select\[27\]
*156 mprj_io_in\[26\]
*157 mprj_io_outen\[26\]
*158 mprj_io_out\[26\]
*159 mprj_io_slew_select\[26\]
*160 mprj_io_inen\[26\]
*161 mprj_io_pd_select\[26\]
*162 mprj_io_drive_sel\[53\]
*163 mprj_io_drive_sel\[52\]
*164 mprj_io_pu_select\[26\]
*165 mprj_io_schmitt_select\[26\]
*166 mprj_io_in\[25\]
*167 mprj_io_outen\[25\]
*168 mprj_io_out\[25\]
*169 mprj_io_slew_select\[25\]
*170 mprj_io_inen\[25\]
*171 mprj_io_pd_select\[25\]
*172 mprj_io_drive_sel\[51\]
*173 mprj_io_pu_select\[25\]
*174 mprj_io_schmitt_select\[25\]
*175 mprj_io_in\[24\]
*176 mprj_io_outen\[24\]
*177 mprj_io_out\[24\]
*178 mprj_io_slew_select\[24\]
*179 mprj_io_inen\[24\]
*180 mprj_io_pd_select\[24\]
*181 mprj_io_drive_sel\[49\]
*182 mprj_io_drive_sel\[48\]
*183 mprj_io_pu_select\[24\]
*184 mprj_io_schmitt_select\[24\]
*185 mprj_io\[0\]
*186 mprj_io\[1\]
*187 mprj_io\[2\]
*188 mprj_io\[3\]
*189 mprj_io\[4\]
*190 mprj_io\[5\]
*191 mprj_io\[6\]
*192 mprj_io\[7\]
*193 mprj_io\[8\]
*194 mprj_io\[9\]
*195 mprj_io\[10\]
*196 mprj_io\[11\]
*197 mprj_io\[12\]
*198 mprj_io\[13\]
*199 mprj_io\[14\]
*200 mprj_io\[15\]
*201 mprj_io\[16\]
*202 mprj_io\[17\]
*203 mprj_io\[18\]
*204 mprj_io\[19\]
*205 mprj_io\[20\]
*206 mprj_io\[21\]
*207 mprj_io\[22\]
*208 mprj_io\[23\]
*209 mprj_io_schmitt_select\[0\]
*210 mprj_io_pu_select\[0\]
*211 mprj_io_drive_sel\[0\]
*212 mprj_io_drive_sel\[1\]
*213 mprj_io_pd_select\[0\]
*214 mprj_io_inen\[0\]
*215 mprj_io_slew_select\[0\]
*216 mprj_io_out\[0\]
*217 mprj_io_outen\[0\]
*218 mprj_io_in\[0\]
*219 mprj_io_schmitt_select\[1\]
*220 mprj_io_pu_select\[1\]
*221 mprj_io_drive_sel\[2\]
*222 mprj_io_drive_sel\[3\]
*223 mprj_io_pd_select\[1\]
*224 mprj_io_inen\[1\]
*225 mprj_io_slew_select\[1\]
*226 mprj_io_out\[1\]
*227 mprj_io_outen\[1\]
*228 mprj_io_in\[1\]
*229 mprj_io_in\[2\]
*230 mprj_io_outen\[2\]
*231 mprj_io_out\[2\]
*232 mprj_io_slew_select\[2\]
*233 mprj_io_inen\[2\]
*234 mprj_io_pd_select\[2\]
*235 mprj_io_pu_select\[2\]
*236 mprj_io_schmitt_select\[2\]
*237 mprj_io_in\[3\]
*238 mprj_io_outen\[3\]
*239 mprj_io_out\[3\]
*240 mprj_io_slew_select\[3\]
*241 mprj_io_inen\[3\]
*242 mprj_io_pd_select\[3\]
*243 mprj_io_pu_select\[3\]
*244 mprj_io_schmitt_select\[3\]
*245 mprj_io_in\[4\]
*246 mprj_io_outen\[4\]
*247 mprj_io_out\[4\]
*248 mprj_io_slew_select\[4\]
*249 mprj_io_inen\[4\]
*250 mprj_io_pd_select\[4\]
*251 mprj_io_pu_select\[4\]
*252 mprj_io_schmitt_select\[4\]
*253 mprj_io_in\[5\]
*254 mprj_io_outen\[5\]
*255 mprj_io_out\[5\]
*256 mprj_io_slew_select\[5\]
*257 mprj_io_inen\[5\]
*258 mprj_io_pd_select\[5\]
*259 mprj_io_pu_select\[5\]
*260 mprj_io_schmitt_select\[5\]
*261 mprj_io_in\[6\]
*262 mprj_io_outen\[6\]
*263 mprj_io_out\[6\]
*264 mprj_io_slew_select\[6\]
*265 mprj_io_inen\[6\]
*266 mprj_io_pd_select\[6\]
*267 mprj_io_pu_select\[6\]
*268 mprj_io_schmitt_select\[6\]
*269 mprj_io_in\[7\]
*270 mprj_io_outen\[7\]
*271 mprj_io_out\[7\]
*272 mprj_io_slew_select\[7\]
*273 mprj_io_inen\[7\]
*274 mprj_io_pd_select\[7\]
*275 mprj_io_pu_select\[7\]
*276 mprj_io_schmitt_select\[7\]
*277 mprj_io_in\[8\]
*278 mprj_io_outen\[8\]
*279 mprj_io_out\[8\]
*280 mprj_io_slew_select\[8\]
*281 mprj_io_inen\[8\]
*282 mprj_io_pd_select\[8\]
*283 mprj_io_pu_select\[8\]
*284 mprj_io_schmitt_select\[8\]
*285 mprj_io_in\[9\]
*286 mprj_io_outen\[9\]
*287 mprj_io_out\[9\]
*288 mprj_io_slew_select\[9\]
*289 mprj_io_inen\[9\]
*290 mprj_io_pd_select\[9\]
*291 mprj_io_pu_select\[9\]
*292 mprj_io_schmitt_select\[9\]
*293 mprj_io_in\[10\]
*294 mprj_io_outen\[10\]
*295 mprj_io_out\[10\]
*296 mprj_io_slew_select\[10\]
*297 mprj_io_inen\[10\]
*298 mprj_io_pd_select\[10\]
*299 mprj_io_pu_select\[10\]
*300 mprj_io_schmitt_select\[10\]
*301 mprj_io_in\[11\]
*302 mprj_io_outen\[11\]
*303 mprj_io_out\[11\]
*304 mprj_io_slew_select\[11\]
*305 mprj_io_inen\[11\]
*306 mprj_io_pd_select\[11\]
*307 mprj_io_pu_select\[11\]
*308 mprj_io_schmitt_select\[11\]
*309 mprj_io_schmitt_select\[14\]
*310 mprj_io_pu_select\[14\]
*311 mprj_io_drive_sel\[28\]
*312 mprj_io_drive_sel\[29\]
*313 mprj_io_pd_select\[14\]
*314 mprj_io_inen\[14\]
*315 mprj_io_slew_select\[14\]
*316 mprj_io_out\[14\]
*317 mprj_io_outen\[14\]
*318 mprj_io_in\[14\]
*319 mprj_io_schmitt_select\[15\]
*320 mprj_io_pu_select\[15\]
*321 mprj_io_drive_sel\[30\]
*322 mprj_io_drive_sel\[31\]
*323 mprj_io_pd_select\[15\]
*324 mprj_io_inen\[15\]
*325 mprj_io_slew_select\[15\]
*326 mprj_io_out\[15\]
*327 mprj_io_outen\[15\]
*328 mprj_io_in\[15\]
*329 mprj_io_schmitt_select\[16\]
*330 mprj_io_pu_select\[16\]
*331 mprj_io_drive_sel\[32\]
*332 mprj_io_drive_sel\[33\]
*333 mprj_io_pd_select\[16\]
*334 mprj_io_inen\[16\]
*335 mprj_io_slew_select\[16\]
*336 mprj_io_out\[16\]
*337 mprj_io_outen\[16\]
*338 mprj_io_in\[16\]
*339 mprj_io_schmitt_select\[17\]
*340 mprj_io_pu_select\[17\]
*341 mprj_io_drive_sel\[34\]
*342 mprj_io_drive_sel\[35\]
*343 mprj_io_pd_select\[17\]
*344 mprj_io_inen\[17\]
*345 mprj_io_slew_select\[17\]
*346 mprj_io_out\[17\]
*347 mprj_io_outen\[17\]
*348 mprj_io_in\[17\]
*349 mprj_io_schmitt_select\[18\]
*350 mprj_io_pu_select\[18\]
*351 mprj_io_drive_sel\[36\]
*352 mprj_io_drive_sel\[37\]
*353 mprj_io_pd_select\[18\]
*354 mprj_io_inen\[18\]
*355 mprj_io_slew_select\[18\]
*356 mprj_io_out\[18\]
*357 mprj_io_outen\[18\]
*358 mprj_io_in\[18\]
*359 mprj_io_schmitt_select\[19\]
*360 mprj_io_pu_select\[19\]
*361 mprj_io_drive_sel\[38\]
*362 mprj_io_drive_sel\[39\]
*363 mprj_io_pd_select\[19\]
*364 mprj_io_inen\[19\]
*365 mprj_io_slew_select\[19\]
*366 mprj_io_out\[19\]
*367 mprj_io_outen\[19\]
*368 mprj_io_in\[19\]
*369 mprj_io_schmitt_select\[20\]
*370 mprj_io_pu_select\[20\]
*371 mprj_io_drive_sel\[40\]
*372 mprj_io_drive_sel\[41\]
*373 mprj_io_pd_select\[20\]
*374 mprj_io_inen\[20\]
*375 mprj_io_slew_select\[20\]
*376 mprj_io_out\[20\]
*377 mprj_io_outen\[20\]
*378 mprj_io_in\[20\]
*379 mprj_io_schmitt_select\[21\]
*380 mprj_io_pu_select\[21\]
*381 mprj_io_drive_sel\[42\]
*382 mprj_io_drive_sel\[43\]
*383 mprj_io_pd_select\[21\]
*384 mprj_io_inen\[21\]
*385 mprj_io_slew_select\[21\]
*386 mprj_io_out\[21\]
*387 mprj_io_outen\[21\]
*388 mprj_io_in\[21\]
*389 mprj_io_schmitt_select\[22\]
*390 mprj_io_pu_select\[22\]
*391 mprj_io_drive_sel\[44\]
*392 mprj_io_drive_sel\[45\]
*393 mprj_io_pd_select\[22\]
*394 mprj_io_inen\[22\]
*395 mprj_io_slew_select\[22\]
*396 mprj_io_out\[22\]
*397 mprj_io_outen\[22\]
*398 mprj_io_in\[22\]
*399 mprj_io_schmitt_select\[23\]
*400 mprj_io_pu_select\[23\]
*401 mprj_io_drive_sel\[46\]
*402 mprj_io_drive_sel\[47\]
*403 mprj_io_pd_select\[23\]
*404 mprj_io_inen\[23\]
*405 mprj_io_slew_select\[23\]
*406 mprj_io_out\[23\]
*407 mprj_io_outen\[23\]
*408 mprj_io_in\[23\]
*409 const_zero\[5\]
*410 const_zero\[4\]
*411 const_zero\[3\]
*412 const_zero\[2\]
*413 const_zero\[1\]
*414 const_zero\[0\]
*415 const_one\[1\]
*416 const_one\[0\]
*417 mprj_io_in\[12\]
*418 mprj_io_outen\[12\]
*419 mprj_io_out\[12\]
*420 mprj_io_slew_select\[12\]
*421 mprj_io_inen\[12\]
*422 mprj_io_pd_select\[12\]
*423 mprj_io_pu_select\[12\]
*424 mprj_io_schmitt_select\[12\]
*425 mprj_io_in\[13\]
*426 mprj_io_outen\[13\]
*427 mprj_io_out\[13\]
*428 mprj_io_slew_select\[13\]
*429 mprj_io_inen\[13\]
*430 mprj_io_pd_select\[13\]
*431 mprj_io_drive_sel\[27\]
*432 mprj_io_drive_sel\[26\]
*433 mprj_io_pu_select\[13\]
*434 mprj_io_schmitt_select\[13\]
*435 mprj_io_drive_sel\[4\]
*436 mprj_io_drive_sel\[5\]
*437 mprj_io_drive_sel\[6\]
*438 mprj_io_drive_sel\[7\]
*439 mprj_io_drive_sel\[8\]
*440 mprj_io_drive_sel\[9\]
*441 mprj_io_drive_sel\[10\]
*442 mprj_io_drive_sel\[11\]
*443 mprj_io_drive_sel\[12\]
*444 mprj_io_drive_sel\[13\]
*445 mprj_io_drive_sel\[14\]
*446 mprj_io_drive_sel\[15\]
*447 mprj_io_drive_sel\[16\]
*448 mprj_io_drive_sel\[17\]
*449 mprj_io_drive_sel\[18\]
*450 mprj_io_drive_sel\[19\]
*451 mprj_io_drive_sel\[20\]
*452 mprj_io_drive_sel\[21\]
*453 mprj_io_drive_sel\[22\]
*454 mprj_io_drive_sel\[23\]
*455 mprj_io_drive_sel\[24\]
*456 mprj_io_drive_sel\[25\]
*457 mprj_io_drive_sel\[50\]
*458 mprj_io_drive_sel\[61\]
*459 mprj_io_drive_sel\[60\]
*461 flash_clk_pad/Y
*462 flash_csb_pad/Y

*PORTS

*463 B
*464 B
*465 B
*466 B
*467 B
*468 B
*469 B
*470 B
*471 B
*472 B
*473 B
*474 B
*475 B
*476 B
*477 B
*478 B
*479 B
*480 B
*481 B
*482 B
*483 B
*484 B
*485 B
*486 B
*487 B
*488 B
*489 B
*490 B
*491 B
*492 B
*493 B
*494 B
*495 B
*496 B
*497 B
*498 B
*499 B
*500 B
*501 B
*502 B
*503 B
*504 B
*505 B
*506 B
*507 B
*508 B
*509 B
*510 B
*511 B
*512 B
*513 B
*514 B
*515 B
*516 B
*517 B
*518 B
*519 B
*520 B
*521 B
*522 B
*523 B
*524 B
*525 B
*526 B
*527 B
*528 B
*529 B
*530 B
*531 B
*532 B
*533 B
*534 B
*535 B
*536 B
*537 B
*538 B
*539 B
*540 B
*541 B
*542 B
*543 B
*544 B
*545 B
*546 B
*547 B
*548 B
*549 B
*550 B
*551 B
*552 B
*553 B
*554 B
*555 B
*556 B
*557 B
*558 B
*559 B
*560 B
*561 B
*562 B
*563 B
*564 B
*565 B
*566 B
*567 B
*568 B
*569 B
*570 B
*571 B
*572 B
*573 B
*574 B
*575 B
*576 B
*577 B
*578 B
*579 B
*580 B
*581 B
*582 B
*583 B
*584 B
*585 B
*586 B
*587 B
*588 B
*589 B
*590 B
*591 B
*592 B
*593 B
*594 B
*595 B
*596 B
*597 B
*598 B
*599 B
*600 B
*601 B
*602 B
*603 B
*604 B
*605 B
*606 B
*607 B
*608 B
*609 B
*610 B
*611 B
*612 B
*613 B
*614 B
*615 B
*616 B
*617 B
*618 B
*619 B
*620 B
*621 B
*622 B
*623 B
*624 B
*625 B
*626 B
*627 B
*628 B
*629 B
*630 B
*631 B
*632 B
*633 B
*634 B
*635 B
*636 B
*637 B
*638 B
*639 B
*640 B
*641 B
*642 B
*643 B
*644 B
*645 B
*646 B
*647 B
*648 B
*649 B
*650 B
*651 B
*652 B
*653 B
*654 B
*655 B
*656 B
*657 B
*658 B
*659 B
*660 B
*661 B
*662 B
*663 B
*664 B
*665 B
*666 B
*667 B
*668 B
*669 B
*670 B
*671 B
*672 B
*673 B
*674 B
*675 B
*676 B
*677 B
*678 B
*679 B
*680 B
*681 B
*682 B
*683 B
*684 B
*685 B
*686 B
*687 B
*688 B
*689 B
*690 B
*691 B
*692 B
*693 B
*694 B
*695 B
*696 B
*697 B
*698 B
*699 B
*700 B
*701 B
*702 B
*703 B
*704 B
*705 B
*706 B
*707 B
*708 B
*709 B
*710 B
*711 B
*712 B
*713 B
*714 B
*715 B
*716 B
*717 B
*718 B
*719 B
*720 B
*721 B
*722 B
*723 B
*724 B
*725 B
*726 B
*727 B
*728 B
*729 B
*730 B
*731 B
*732 B
*733 B
*734 B
*735 B
*736 B
*737 B
*738 B
*739 B
*740 B
*741 B
*742 B
*743 B
*744 B
*745 B
*746 B
*747 B
*748 B
*749 B
*750 B
*751 B
*752 B
*753 B
*754 B
*755 B
*756 B
*757 B
*758 B
*759 B
*760 B
*761 B
*762 B
*763 B
*764 B
*765 B
*766 B
*767 B
*768 B
*769 B
*770 B
*771 B
*772 B
*773 B
*774 B
*775 B
*776 B
*777 B
*778 B
*779 B
*780 B
*781 B
*782 B
*783 B
*784 B
*785 B
*786 B
*787 B
*788 B
*789 B
*790 B
*791 B
*792 B
*793 B
*794 B
*795 B
*796 B
*797 B
*798 B
*799 B
*800 B
*801 B
*802 B
*803 B
*804 B
*805 B
*806 B
*807 B
*808 B
*809 B
*810 B
*811 B
*812 B
*813 B
*814 B
*815 B
*816 B
*817 B
*818 B
*819 B
*820 B
*821 B
*822 B
*823 B
*824 B
*825 B
*826 B
*827 B
*828 B
*829 B
*830 B
*831 B
*832 B
*833 B
*834 B
*835 B
*836 B
*837 B
*838 B
*839 B
*840 B
*841 B
*842 B
*843 B
*844 B
*845 B
*846 B
*847 B
*848 B
*849 B
*850 B
*851 B
*852 B
*853 B
*854 B
*855 B
*856 B
*857 B
*858 B
*859 B
*860 B
*861 B
*862 B
*863 B
*864 B
*865 B
*866 B
*867 B
*868 B
*869 B
*870 B
*871 B
*872 B
*873 B
*874 B
*875 B
*876 B
*877 B
*878 B
*879 B
*880 B
*881 B
*882 B
*883 B
*884 B
*885 B
*886 B
*887 B
*888 B
*889 B
*890 B
*891 B
*892 B
*893 B
*894 B
*895 B
*896 B
*897 B
*898 B
*899 B
*900 B
*901 B
*902 B
*903 B
*904 B
*905 B
*906 B
*907 B
*908 B
*909 B
*910 B
*911 B
*912 B
*913 B
*914 B
*915 B
*916 B
*917 B
*918 B
*919 B

*D_NET *2 26.0903

*CONN
*P *463 B *C 816.2500 10.7500
*I *964:PAD I *C 837.5000 20.0000

*CAP
1 *463 9.71319
2 *2:2 3.82581
3 *2:3 8.2116
4 *2:15 3.82581
5 *2:17 0.513889
6 *2:30 0.0

*RES
1 *463 *2:2 0.0768571
2 *463 *2:3 0.001
3 *463 *2:5 0.0417021
4 *964:PAD *2:3 0.001
5 *2:2 *2:3 0.001
6 *2:3 *2:5 0.001
7 *2:3 *2:6 0.001
8 *2:3 *2:7 0.001
9 *2:3 *2:8 0.001
10 *2:3 *2:9 0.001
11 *2:3 *2:10 0.001
12 *2:3 *2:11 0.001
13 *2:3 *2:12 0.001
14 *2:3 *2:13 0.001
15 *2:3 *2:14 0.001
16 *2:3 *2:15 0.001
17 *2:3 *2:16 0.001
18 *2:3 *2:17 0.001
19 *2:3 *2:18 0.001
20 *2:3 *2:19 0.001
21 *2:3 *2:21 0.001
22 *2:3 *2:22 0.001
23 *2:3 *2:23 0.001
24 *2:3 *2:24 0.001
25 *2:3 *2:25 0.001
26 *2:3 *2:26 0.001
27 *2:3 *2:27 0.001
28 *2:3 *2:28 0.001
29 *2:3 *2:29 0.001
30 *2:3 *2:30 0.001
31 *2:4 *2:5 0.001
32 *2:15 *2:20 0.001
*END

*D_NET *3 26.041

*CONN
*P *464 B *C 1641.2500 10.7500
*I *921:PAD B *C 1662.5000 20.0000 *D gf180mcu_fd_io__bi_t

*CAP
1 *464 9.71319
2 *3:2 3.7765
3 *3:3 8.2116
4 *3:15 3.82581
5 *3:17 0.513889
6 *3:30 0.0

*RES
1 *464 *3:2 0.0768571
2 *464 *3:3 0.001
3 *464 *3:5 0.0417021
4 *921:PAD *3:3 0.001
5 *3:2 *3:3 0.001
6 *3:3 *3:21 0.001
7 *3:3 *3:22 0.001
8 *3:3 *3:23 0.001
9 *3:3 *3:24 0.001
10 *3:3 *3:25 0.001
11 *3:3 *3:26 0.001
12 *3:3 *3:5 0.001
13 *3:3 *3:27 0.001
14 *3:3 *3:6 0.001
15 *3:3 *3:28 0.001
16 *3:3 *3:7 0.001
17 *3:3 *3:29 0.001
18 *3:3 *3:8 0.001
19 *3:3 *3:30 0.001
20 *3:3 *3:9 0.001
21 *3:3 *3:10 0.001
22 *3:3 *3:11 0.001
23 *3:3 *3:12 0.001
24 *3:3 *3:13 0.001
25 *3:3 *3:14 0.001
26 *3:3 *3:15 0.001