* NGSPICE file created from digital_pll.ext - technology: gf180mcuC

* Black-box entry subcircuit for gf180mcu_fd_sc_mcu7t5v0__antenna abstract view
.subckt gf180mcu_fd_sc_mcu7t5v0__antenna I VDD VSS
.ends

* Black-box entry subcircuit for gf180mcu_fd_sc_mcu7t5v0__clkbuf_1 abstract view
.subckt gf180mcu_fd_sc_mcu7t5v0__clkbuf_1 I Z VDD VSS
.ends

* Black-box entry subcircuit for gf180mcu_fd_sc_mcu7t5v0__xnor2_1 abstract view
.subckt gf180mcu_fd_sc_mcu7t5v0__xnor2_1 A1 A2 ZN VDD VSS
.ends

* Black-box entry subcircuit for gf180mcu_fd_sc_mcu7t5v0__clkinv_1 abstract view
.subckt gf180mcu_fd_sc_mcu7t5v0__clkinv_1 I ZN VDD VSS
.ends

* Black-box entry subcircuit for gf180mcu_fd_sc_mcu7t5v0__clkinv_2 abstract view
.subckt gf180mcu_fd_sc_mcu7t5v0__clkinv_2 I ZN VDD VSS
.ends

* Black-box entry subcircuit for gf180mcu_fd_sc_mcu7t5v0__buf_1 abstract view
.subckt gf180mcu_fd_sc_mcu7t5v0__buf_1 I Z VDD VSS
.ends

* Black-box entry subcircuit for gf180mcu_fd_sc_mcu7t5v0__fillcap_4 abstract view
.subckt gf180mcu_fd_sc_mcu7t5v0__fillcap_4 VDD VSS
.ends

* Black-box entry subcircuit for gf180mcu_fd_sc_mcu7t5v0__and2_1 abstract view
.subckt gf180mcu_fd_sc_mcu7t5v0__and2_1 A1 A2 Z VDD VSS
.ends

* Black-box entry subcircuit for gf180mcu_fd_sc_mcu7t5v0__fill_1 abstract view
.subckt gf180mcu_fd_sc_mcu7t5v0__fill_1 VDD VSS
.ends

* Black-box entry subcircuit for gf180mcu_fd_sc_mcu7t5v0__filltie abstract view
.subckt gf180mcu_fd_sc_mcu7t5v0__filltie VDD VSS
.ends

* Black-box entry subcircuit for gf180mcu_fd_sc_mcu7t5v0__invz_1 abstract view
.subckt gf180mcu_fd_sc_mcu7t5v0__invz_1 EN I ZN VDD VSS
.ends

* Black-box entry subcircuit for gf180mcu_fd_sc_mcu7t5v0__buf_2 abstract view
.subckt gf180mcu_fd_sc_mcu7t5v0__buf_2 I Z VDD VSS
.ends

* Black-box entry subcircuit for gf180mcu_fd_sc_mcu7t5v0__dffrnq_1 abstract view
.subckt gf180mcu_fd_sc_mcu7t5v0__dffrnq_1 D RN CLK Q VDD VSS
.ends

* Black-box entry subcircuit for gf180mcu_fd_sc_mcu7t5v0__oai32_1 abstract view
.subckt gf180mcu_fd_sc_mcu7t5v0__oai32_1 A1 A2 A3 B1 B2 ZN VDD VSS
.ends

* Black-box entry subcircuit for gf180mcu_fd_sc_mcu7t5v0__nand2_1 abstract view
.subckt gf180mcu_fd_sc_mcu7t5v0__nand2_1 A1 A2 ZN VDD VSS
.ends

* Black-box entry subcircuit for gf180mcu_fd_sc_mcu7t5v0__oai21_1 abstract view
.subckt gf180mcu_fd_sc_mcu7t5v0__oai21_1 A1 A2 B ZN VDD VSS
.ends

* Black-box entry subcircuit for gf180mcu_fd_sc_mcu7t5v0__aoi21_1 abstract view
.subckt gf180mcu_fd_sc_mcu7t5v0__aoi21_1 A1 A2 B ZN VDD VSS
.ends

* Black-box entry subcircuit for gf180mcu_fd_sc_mcu7t5v0__nor2_1 abstract view
.subckt gf180mcu_fd_sc_mcu7t5v0__nor2_1 A1 A2 ZN VDD VSS
.ends

* Black-box entry subcircuit for gf180mcu_fd_sc_mcu7t5v0__xor2_1 abstract view
.subckt gf180mcu_fd_sc_mcu7t5v0__xor2_1 A1 A2 Z VDD VSS
.ends

* Black-box entry subcircuit for gf180mcu_fd_sc_mcu7t5v0__nand4_1 abstract view
.subckt gf180mcu_fd_sc_mcu7t5v0__nand4_1 A1 A2 A3 A4 ZN VDD VSS
.ends

* Black-box entry subcircuit for gf180mcu_fd_sc_mcu7t5v0__fillcap_8 abstract view
.subckt gf180mcu_fd_sc_mcu7t5v0__fillcap_8 VDD VSS
.ends

* Black-box entry subcircuit for gf180mcu_fd_sc_mcu7t5v0__oai211_1 abstract view
.subckt gf180mcu_fd_sc_mcu7t5v0__oai211_1 A1 A2 B C ZN VDD VSS
.ends

* Black-box entry subcircuit for gf180mcu_fd_sc_mcu7t5v0__nor2_2 abstract view
.subckt gf180mcu_fd_sc_mcu7t5v0__nor2_2 A1 A2 ZN VDD VSS
.ends

* Black-box entry subcircuit for gf180mcu_fd_sc_mcu7t5v0__nand3_1 abstract view
.subckt gf180mcu_fd_sc_mcu7t5v0__nand3_1 A1 A2 A3 ZN VDD VSS
.ends

* Black-box entry subcircuit for gf180mcu_fd_sc_mcu7t5v0__mux2_2 abstract view
.subckt gf180mcu_fd_sc_mcu7t5v0__mux2_2 I0 I1 S Z VDD VSS
.ends

* Black-box entry subcircuit for gf180mcu_fd_sc_mcu7t5v0__fillcap_16 abstract view
.subckt gf180mcu_fd_sc_mcu7t5v0__fillcap_16 VDD VSS
.ends

* Black-box entry subcircuit for gf180mcu_fd_sc_mcu7t5v0__clkbuf_4 abstract view
.subckt gf180mcu_fd_sc_mcu7t5v0__clkbuf_4 I Z VDD VSS
.ends

* Black-box entry subcircuit for gf180mcu_fd_sc_mcu7t5v0__endcap abstract view
.subckt gf180mcu_fd_sc_mcu7t5v0__endcap VDD VSS
.ends

* Black-box entry subcircuit for gf180mcu_fd_sc_mcu7t5v0__or2_1 abstract view
.subckt gf180mcu_fd_sc_mcu7t5v0__or2_1 A1 A2 Z VDD VSS
.ends

* Black-box entry subcircuit for gf180mcu_fd_sc_mcu7t5v0__fillcap_32 abstract view
.subckt gf180mcu_fd_sc_mcu7t5v0__fillcap_32 VDD VSS
.ends

* Black-box entry subcircuit for gf180mcu_fd_sc_mcu7t5v0__buf_8 abstract view
.subckt gf180mcu_fd_sc_mcu7t5v0__buf_8 I Z VDD VSS
.ends

* Black-box entry subcircuit for gf180mcu_fd_sc_mcu7t5v0__oai221_2 abstract view
.subckt gf180mcu_fd_sc_mcu7t5v0__oai221_2 A1 A2 B1 B2 C ZN VDD VSS
.ends

* Black-box entry subcircuit for gf180mcu_fd_sc_mcu7t5v0__aoi22_1 abstract view
.subckt gf180mcu_fd_sc_mcu7t5v0__aoi22_1 A1 A2 B1 B2 ZN VDD VSS
.ends

* Black-box entry subcircuit for gf180mcu_fd_sc_mcu7t5v0__nand2_2 abstract view
.subckt gf180mcu_fd_sc_mcu7t5v0__nand2_2 A1 A2 ZN VDD VSS
.ends

* Black-box entry subcircuit for gf180mcu_fd_sc_mcu7t5v0__and4_1 abstract view
.subckt gf180mcu_fd_sc_mcu7t5v0__and4_1 A1 A2 A3 A4 Z VDD VSS
.ends

* Black-box entry subcircuit for gf180mcu_fd_sc_mcu7t5v0__nor3_1 abstract view
.subckt gf180mcu_fd_sc_mcu7t5v0__nor3_1 A1 A2 A3 ZN VDD VSS
.ends

* Black-box entry subcircuit for gf180mcu_fd_sc_mcu7t5v0__invz_2 abstract view
.subckt gf180mcu_fd_sc_mcu7t5v0__invz_2 EN I ZN VDD VSS
.ends

* Black-box entry subcircuit for gf180mcu_fd_sc_mcu7t5v0__aoi211_1 abstract view
.subckt gf180mcu_fd_sc_mcu7t5v0__aoi211_1 A1 A2 B C ZN VDD VSS
.ends

* Black-box entry subcircuit for gf180mcu_fd_sc_mcu7t5v0__tieh abstract view
.subckt gf180mcu_fd_sc_mcu7t5v0__tieh Z VDD VSS
.ends

* Black-box entry subcircuit for gf180mcu_fd_sc_mcu7t5v0__buf_4 abstract view
.subckt gf180mcu_fd_sc_mcu7t5v0__buf_4 I Z VDD VSS
.ends

* Black-box entry subcircuit for gf180mcu_fd_sc_mcu7t5v0__or4_1 abstract view
.subckt gf180mcu_fd_sc_mcu7t5v0__or4_1 A1 A2 A3 A4 Z VDD VSS
.ends

* Black-box entry subcircuit for gf180mcu_fd_sc_mcu7t5v0__nor3_2 abstract view
.subckt gf180mcu_fd_sc_mcu7t5v0__nor3_2 A1 A2 A3 ZN VDD VSS
.ends

* Black-box entry subcircuit for gf180mcu_fd_sc_mcu7t5v0__nand4_2 abstract view
.subckt gf180mcu_fd_sc_mcu7t5v0__nand4_2 A1 A2 A3 A4 ZN VDD VSS
.ends

* Black-box entry subcircuit for gf180mcu_fd_sc_mcu7t5v0__oai21_4 abstract view
.subckt gf180mcu_fd_sc_mcu7t5v0__oai21_4 A1 A2 B ZN VDD VSS
.ends

* Black-box entry subcircuit for gf180mcu_fd_sc_mcu7t5v0__aoi21_4 abstract view
.subckt gf180mcu_fd_sc_mcu7t5v0__aoi21_4 A1 A2 B ZN VDD VSS
.ends

* Black-box entry subcircuit for gf180mcu_fd_sc_mcu7t5v0__aoi221_2 abstract view
.subckt gf180mcu_fd_sc_mcu7t5v0__aoi221_2 A1 A2 B1 B2 C ZN VDD VSS
.ends

* Black-box entry subcircuit for gf180mcu_fd_sc_mcu7t5v0__inv_1 abstract view
.subckt gf180mcu_fd_sc_mcu7t5v0__inv_1 I ZN VDD VSS
.ends

* Black-box entry subcircuit for gf180mcu_fd_sc_mcu7t5v0__nor4_1 abstract view
.subckt gf180mcu_fd_sc_mcu7t5v0__nor4_1 A1 A2 A3 A4 ZN VDD VSS
.ends

* Black-box entry subcircuit for gf180mcu_fd_sc_mcu7t5v0__oai32_2 abstract view
.subckt gf180mcu_fd_sc_mcu7t5v0__oai32_2 A1 A2 A3 B1 B2 ZN VDD VSS
.ends

* Black-box entry subcircuit for gf180mcu_fd_sc_mcu7t5v0__and3_1 abstract view
.subckt gf180mcu_fd_sc_mcu7t5v0__and3_1 A1 A2 A3 Z VDD VSS
.ends

* Black-box entry subcircuit for gf180mcu_fd_sc_mcu7t5v0__clkinv_4 abstract view
.subckt gf180mcu_fd_sc_mcu7t5v0__clkinv_4 I ZN VDD VSS
.ends

* Black-box entry subcircuit for gf180mcu_fd_sc_mcu7t5v0__clkinv_8 abstract view
.subckt gf180mcu_fd_sc_mcu7t5v0__clkinv_8 I ZN VDD VSS
.ends

* Black-box entry subcircuit for gf180mcu_fd_sc_mcu7t5v0__oai31_2 abstract view
.subckt gf180mcu_fd_sc_mcu7t5v0__oai31_2 A1 A2 A3 B ZN VDD VSS
.ends

* Black-box entry subcircuit for gf180mcu_fd_sc_mcu7t5v0__xor3_1 abstract view
.subckt gf180mcu_fd_sc_mcu7t5v0__xor3_1 A1 A2 A3 Z VDD VSS
.ends

* Black-box entry subcircuit for gf180mcu_fd_sc_mcu7t5v0__oai31_1 abstract view
.subckt gf180mcu_fd_sc_mcu7t5v0__oai31_1 A1 A2 A3 B ZN VDD VSS
.ends

.subckt digital_pll VDD VSS clockp[0] clockp[1] dco div[0] div[1] div[2] div[3] div[4]
+ enable ext_trim[0] ext_trim[10] ext_trim[11] ext_trim[12] ext_trim[13] ext_trim[14]
+ ext_trim[15] ext_trim[16] ext_trim[17] ext_trim[18] ext_trim[19] ext_trim[1] ext_trim[20]
+ ext_trim[21] ext_trim[22] ext_trim[23] ext_trim[24] ext_trim[25] ext_trim[2] ext_trim[3]
+ ext_trim[4] ext_trim[5] ext_trim[6] ext_trim[7] ext_trim[8] ext_trim[9] osc resetb
XANTENNA__577__A1 _498_/Z VDD VSS gf180mcu_fd_sc_mcu7t5v0__antenna
X_501_ _501_/I _501_/Z VDD VSS gf180mcu_fd_sc_mcu7t5v0__clkbuf_1
X_432_ _411_/Z _432_/A2 _433_/I1 VDD VSS gf180mcu_fd_sc_mcu7t5v0__xnor2_1
X_363_ _363_/I _367_/B1 VDD VSS gf180mcu_fd_sc_mcu7t5v0__clkinv_1
XANTENNA__568__A1 _495_/Z VDD VSS gf180mcu_fd_sc_mcu7t5v0__antenna
Xringosc.dstage\[1\].id.delayint0 ringosc.dstage\[1\].id.delayint0/I ringosc.dstage\[1\].id.delayen0/I
+ VDD VSS gf180mcu_fd_sc_mcu7t5v0__clkinv_2
X_415_ _671_/Q _415_/Z VDD VSS gf180mcu_fd_sc_mcu7t5v0__buf_1
XFILLER_10_125 VDD VSS gf180mcu_fd_sc_mcu7t5v0__fillcap_4
X_346_ _666_/Q _681_/Q _346_/Z VDD VSS gf180mcu_fd_sc_mcu7t5v0__and2_1
XFILLER_17_280 VDD VSS gf180mcu_fd_sc_mcu7t5v0__fill_1
XFILLER_5_140 VDD VSS gf180mcu_fd_sc_mcu7t5v0__filltie
XANTENNA__679__CLK _686_/I VDD VSS gf180mcu_fd_sc_mcu7t5v0__antenna
Xringosc.dstage\[11\].id.delayen1 _603_/ZN ringosc.dstage\[11\].id.delayen1/I ringosc.dstage\[11\].id.delayint0/I
+ VDD VSS gf180mcu_fd_sc_mcu7t5v0__invz_1
XFILLER_2_176 VDD VSS gf180mcu_fd_sc_mcu7t5v0__fill_1
X_329_ _329_/I _478_/S VDD VSS gf180mcu_fd_sc_mcu7t5v0__buf_2
X_680_ _680_/D _652_/Z _686_/I _680_/Q VDD VSS gf180mcu_fd_sc_mcu7t5v0__dffrnq_1
X_594_ _565_/B _565_/C _580_/Z _594_/B1 _561_/Z _594_/ZN VDD VSS gf180mcu_fd_sc_mcu7t5v0__oai32_1
Xringosc.dstage\[10\].id.delayenb0 ringosc.dstage\[10\].id.trim0bar/ZN ringosc.dstage\[10\].id.delayenb1/I
+ ringosc.dstage\[11\].id.delaybuf0/I VDD VSS gf180mcu_fd_sc_mcu7t5v0__invz_1
X_663_ _663_/D _612_/Z _686_/I _663_/Q VDD VSS gf180mcu_fd_sc_mcu7t5v0__dffrnq_1
Xringosc.dstage\[9\].id.delayenb0 ringosc.dstage\[9\].id.trim0bar/ZN ringosc.dstage\[9\].id.delayenb1/I
+ ringosc.dstage\[9\].id.delayen0/ZN VDD VSS gf180mcu_fd_sc_mcu7t5v0__invz_1
XFILLER_17_109 VDD VSS gf180mcu_fd_sc_mcu7t5v0__fill_1
X_577_ _498_/Z _577_/A2 _578_/B VDD VSS gf180mcu_fd_sc_mcu7t5v0__nand2_1
Xringosc.dstage\[10\].id.trim0bar _534_/ZN ringosc.dstage\[10\].id.trim0bar/ZN VDD
+ VSS gf180mcu_fd_sc_mcu7t5v0__clkinv_1
X_646_ _646_/I _646_/Z VDD VSS gf180mcu_fd_sc_mcu7t5v0__clkbuf_1
XTAP_123 VDD VSS gf180mcu_fd_sc_mcu7t5v0__filltie
XTAP_112 VDD VSS gf180mcu_fd_sc_mcu7t5v0__filltie
XTAP_101 VDD VSS gf180mcu_fd_sc_mcu7t5v0__filltie
XFILLER_7_8 VDD VSS gf180mcu_fd_sc_mcu7t5v0__fill_1
X_500_ _486_/Z _510_/A1 _500_/B _501_/I VDD VSS gf180mcu_fd_sc_mcu7t5v0__oai21_1
X_431_ _437_/A1 _423_/Z _431_/B _432_/A2 VDD VSS gf180mcu_fd_sc_mcu7t5v0__aoi21_1
X_362_ _356_/Z _368_/A2 _362_/B _367_/A3 VDD VSS gf180mcu_fd_sc_mcu7t5v0__aoi21_1
X_629_ _622_/Z _619_/Z _630_/I VDD VSS gf180mcu_fd_sc_mcu7t5v0__nor2_1
XFILLER_6_108 VDD VSS gf180mcu_fd_sc_mcu7t5v0__fill_1
X_414_ _673_/Q _402_/I _414_/Z VDD VSS gf180mcu_fd_sc_mcu7t5v0__xor2_1
X_345_ input2/Z _396_/A2 _348_/A1 VDD VSS gf180mcu_fd_sc_mcu7t5v0__nor2_1
XANTENNA_input29_I ext_trim[5] VDD VSS gf180mcu_fd_sc_mcu7t5v0__antenna
X_328_ _668_/Q _468_/B VDD VSS gf180mcu_fd_sc_mcu7t5v0__clkbuf_1
XFILLER_6_280 VDD VSS gf180mcu_fd_sc_mcu7t5v0__fill_1
XFILLER_20_33 VDD VSS gf180mcu_fd_sc_mcu7t5v0__filltie
XANTENNA__604__A1 _604_/A1 VDD VSS gf180mcu_fd_sc_mcu7t5v0__antenna
XANTENNA__669__CLK _686_/I VDD VSS gf180mcu_fd_sc_mcu7t5v0__antenna
X_662_ _662_/I _662_/Z VDD VSS gf180mcu_fd_sc_mcu7t5v0__clkbuf_1
Xringosc.dstage\[9\].id.delayenb1 ringosc.dstage\[9\].id.trim1bar/ZN ringosc.dstage\[9\].id.delayenb1/I
+ ringosc.dstage\[9\].id.delayint0/I VDD VSS gf180mcu_fd_sc_mcu7t5v0__invz_1
X_593_ _593_/I _594_/B1 VDD VSS gf180mcu_fd_sc_mcu7t5v0__clkinv_1
Xringosc.dstage\[10\].id.delayenb1 ringosc.dstage\[10\].id.trim1bar/ZN ringosc.dstage\[10\].id.delayenb1/I
+ ringosc.dstage\[10\].id.delayint0/I VDD VSS gf180mcu_fd_sc_mcu7t5v0__invz_1
XANTENNA_input11_I ext_trim[12] VDD VSS gf180mcu_fd_sc_mcu7t5v0__antenna
XFILLER_1_209 VDD VSS gf180mcu_fd_sc_mcu7t5v0__fillcap_4
X_576_ _576_/A1 _588_/A3 _582_/A4 _576_/A4 _578_/A2 VDD VSS gf180mcu_fd_sc_mcu7t5v0__nand4_1
X_645_ _645_/I _645_/Z VDD VSS gf180mcu_fd_sc_mcu7t5v0__clkbuf_1
XFILLER_0_242 VDD VSS gf180mcu_fd_sc_mcu7t5v0__filltie
XTAP_124 VDD VSS gf180mcu_fd_sc_mcu7t5v0__filltie
XTAP_113 VDD VSS gf180mcu_fd_sc_mcu7t5v0__filltie
XTAP_102 VDD VSS gf180mcu_fd_sc_mcu7t5v0__filltie
XANTENNA_input3_I div[1] VDD VSS gf180mcu_fd_sc_mcu7t5v0__antenna
XFILLER_13_168 VDD VSS gf180mcu_fd_sc_mcu7t5v0__fillcap_8
X_430_ _429_/Z _388_/Z _431_/B VDD VSS gf180mcu_fd_sc_mcu7t5v0__nor2_1
X_361_ _669_/Q _684_/Q _362_/B VDD VSS gf180mcu_fd_sc_mcu7t5v0__xnor2_1
X_559_ _420_/Z _588_/A3 _559_/B _559_/C _562_/A3 VDD VSS gf180mcu_fd_sc_mcu7t5v0__oai211_1
X_628_ _628_/I _628_/Z VDD VSS gf180mcu_fd_sc_mcu7t5v0__clkbuf_1
XFILLER_8_172 VDD VSS gf180mcu_fd_sc_mcu7t5v0__fillcap_4
XFILLER_10_116 VDD VSS gf180mcu_fd_sc_mcu7t5v0__fill_1
X_413_ _420_/I _412_/Z _604_/A1 VDD VSS gf180mcu_fd_sc_mcu7t5v0__nor2_2
X_344_ _666_/Q _681_/Q _396_/A2 VDD VSS gf180mcu_fd_sc_mcu7t5v0__xnor2_1
Xringosc.dstage\[4\].id.delayen0 _506_/ZN ringosc.dstage\[4\].id.delayen0/I ringosc.dstage\[5\].id.delaybuf0/I
+ VDD VSS gf180mcu_fd_sc_mcu7t5v0__invz_1
XFILLER_14_241 VDD VSS gf180mcu_fd_sc_mcu7t5v0__fill_1
XFILLER_0_37 VDD VSS gf180mcu_fd_sc_mcu7t5v0__fill_1
XFILLER_2_167 VDD VSS gf180mcu_fd_sc_mcu7t5v0__fill_1
X_327_ _327_/I _684_/D VDD VSS gf180mcu_fd_sc_mcu7t5v0__clkbuf_1
X_592_ _592_/I _592_/Z VDD VSS gf180mcu_fd_sc_mcu7t5v0__clkbuf_1
X_661_ _486_/Z _609_/I _662_/I VDD VSS gf180mcu_fd_sc_mcu7t5v0__nor2_1
Xringosc.dstage\[4\].id.trim1bar _579_/Z ringosc.dstage\[4\].id.trim1bar/ZN VDD VSS
+ gf180mcu_fd_sc_mcu7t5v0__clkinv_1
XFILLER_19_152 VDD VSS gf180mcu_fd_sc_mcu7t5v0__fill_1
XANTENNA__513__A1 _604_/A1 VDD VSS gf180mcu_fd_sc_mcu7t5v0__antenna
X_575_ _507_/Z _575_/A2 _575_/A3 _576_/A4 VDD VSS gf180mcu_fd_sc_mcu7t5v0__nand3_1
XFILLER_16_133 VDD VSS gf180mcu_fd_sc_mcu7t5v0__filltie
X_644_ _634_/Z _643_/Z _645_/I VDD VSS gf180mcu_fd_sc_mcu7t5v0__nor2_1
Xringosc.dstage\[9\].id.delaybuf0 ringosc.dstage\[9\].id.delaybuf0/I ringosc.dstage\[9\].id.delayenb1/I
+ VDD VSS gf180mcu_fd_sc_mcu7t5v0__clkbuf_1
XTAP_125 VDD VSS gf180mcu_fd_sc_mcu7t5v0__filltie
Xringosc.dstage\[5\].id.delayenb0 ringosc.dstage\[5\].id.trim0bar/ZN rebuffer2/I ringosc.ibufp10/I
+ VDD VSS gf180mcu_fd_sc_mcu7t5v0__invz_1
XTAP_114 VDD VSS gf180mcu_fd_sc_mcu7t5v0__filltie
Xringosc.dstage\[10\].id.delaybuf0 ringosc.dstage\[9\].id.delayen0/ZN ringosc.dstage\[10\].id.delayenb1/I
+ VDD VSS gf180mcu_fd_sc_mcu7t5v0__clkbuf_1
XTAP_103 VDD VSS gf180mcu_fd_sc_mcu7t5v0__filltie
XFILLER_9_107 VDD VSS gf180mcu_fd_sc_mcu7t5v0__fill_1
X_360_ _360_/A1 _360_/A2 _360_/B _360_/C _368_/A2 VDD VSS gf180mcu_fd_sc_mcu7t5v0__oai211_1
X_489_ _487_/Z _589_/A3 _570_/A1 VDD VSS gf180mcu_fd_sc_mcu7t5v0__nor2_1
X_558_ _507_/Z _428_/Z _429_/Z _420_/Z _559_/C VDD VSS gf180mcu_fd_sc_mcu7t5v0__nand4_1
X_627_ _622_/Z _619_/Z _628_/I VDD VSS gf180mcu_fd_sc_mcu7t5v0__nor2_1
X_412_ _674_/Q _673_/Q _412_/Z VDD VSS gf180mcu_fd_sc_mcu7t5v0__and2_1
X_343_ _341_/Z _360_/A2 _343_/Z VDD VSS gf180mcu_fd_sc_mcu7t5v0__xor2_1
Xringosc.dstage\[4\].id.delayen1 _579_/Z ringosc.dstage\[4\].id.delayen1/I ringosc.dstage\[4\].id.delayint0/I
+ VDD VSS gf180mcu_fd_sc_mcu7t5v0__invz_1
XFILLER_9_58 VDD VSS gf180mcu_fd_sc_mcu7t5v0__fillcap_4
X_326_ _684_/Q _324_/Z _473_/B _327_/I VDD VSS gf180mcu_fd_sc_mcu7t5v0__mux2_2
XFILLER_9_14 VDD VSS gf180mcu_fd_sc_mcu7t5v0__fill_1
XFILLER_9_36 VDD VSS gf180mcu_fd_sc_mcu7t5v0__fill_1
XFILLER_18_89 VDD VSS gf180mcu_fd_sc_mcu7t5v0__fill_1
XANTENNA_ringosc.dstage\[0\].id.trim1bar_I _546_/ZN VDD VSS gf180mcu_fd_sc_mcu7t5v0__antenna
XANTENNA_input34_I osc VDD VSS gf180mcu_fd_sc_mcu7t5v0__antenna
X_591_ _603_/A1 _591_/A2 _591_/B _592_/I VDD VSS gf180mcu_fd_sc_mcu7t5v0__oai21_1
X_660_ _660_/I _660_/Z VDD VSS gf180mcu_fd_sc_mcu7t5v0__clkbuf_1
Xringosc.dstage\[3\].id.trim0bar _501_/Z ringosc.dstage\[3\].id.trim0bar/ZN VDD VSS
+ gf180mcu_fd_sc_mcu7t5v0__clkinv_1
XFILLER_0_244 VDD VSS gf180mcu_fd_sc_mcu7t5v0__fill_1
XTAP_126 VDD VSS gf180mcu_fd_sc_mcu7t5v0__filltie
Xringosc.dstage\[5\].id.delayenb1 ringosc.dstage\[5\].id.trim1bar/ZN rebuffer1/Z ringosc.dstage\[5\].id.delayint0/I
+ VDD VSS gf180mcu_fd_sc_mcu7t5v0__invz_1
Xringosc.dstage\[9\].id.delaybuf1 ringosc.dstage\[9\].id.delayenb1/I ringosc.dstage\[9\].id.delayen1/I
+ VDD VSS gf180mcu_fd_sc_mcu7t5v0__clkbuf_1
XTAP_115 VDD VSS gf180mcu_fd_sc_mcu7t5v0__filltie
Xringosc.dstage\[10\].id.delaybuf1 ringosc.dstage\[10\].id.delayenb1/I ringosc.dstage\[10\].id.delayen1/I
+ VDD VSS gf180mcu_fd_sc_mcu7t5v0__clkbuf_1
XTAP_104 VDD VSS gf180mcu_fd_sc_mcu7t5v0__filltie
X_574_ _340_/Z _428_/Z _576_/A1 VDD VSS gf180mcu_fd_sc_mcu7t5v0__nand2_1
X_643_ _643_/I _643_/Z VDD VSS gf180mcu_fd_sc_mcu7t5v0__clkbuf_1
X_488_ _428_/I _429_/Z _589_/A3 VDD VSS gf180mcu_fd_sc_mcu7t5v0__nand2_1
X_557_ _487_/Z _575_/A3 _559_/B VDD VSS gf180mcu_fd_sc_mcu7t5v0__nand2_1
X_626_ _626_/I _626_/Z VDD VSS gf180mcu_fd_sc_mcu7t5v0__clkbuf_1
XFILLER_10_129 VDD VSS gf180mcu_fd_sc_mcu7t5v0__fill_1
XANTENNA__404__A1 _674_/Q VDD VSS gf180mcu_fd_sc_mcu7t5v0__antenna
X_411_ _504_/A2 _388_/Z _411_/Z VDD VSS gf180mcu_fd_sc_mcu7t5v0__xor2_1
X_342_ _666_/Q _681_/Q _360_/A2 VDD VSS gf180mcu_fd_sc_mcu7t5v0__nand2_1
X_609_ _609_/I _609_/Z VDD VSS gf180mcu_fd_sc_mcu7t5v0__buf_2
X_325_ _329_/I _473_/B VDD VSS gf180mcu_fd_sc_mcu7t5v0__buf_1
XANTENNA_input27_I ext_trim[3] VDD VSS gf180mcu_fd_sc_mcu7t5v0__antenna
XFILLER_20_246 VDD VSS gf180mcu_fd_sc_mcu7t5v0__filltie
XFILLER_9_280 VDD VSS gf180mcu_fd_sc_mcu7t5v0__fill_1
XANTENNA_ringosc.dstage\[0\].id.delaybuf1_I ringosc.dstage\[0\].id.delayenb1/I VDD
+ VSS gf180mcu_fd_sc_mcu7t5v0__antenna
XFILLER_1_2 VDD VSS gf180mcu_fd_sc_mcu7t5v0__filltie
XFILLER_6_250 VDD VSS gf180mcu_fd_sc_mcu7t5v0__fillcap_16
X_590_ _498_/Z _590_/A2 _591_/B VDD VSS gf180mcu_fd_sc_mcu7t5v0__nand2_1
XFILLER_3_275 VDD VSS gf180mcu_fd_sc_mcu7t5v0__fillcap_4
XFILLER_6_49 VDD VSS gf180mcu_fd_sc_mcu7t5v0__filltie
XFILLER_15_47 VDD VSS gf180mcu_fd_sc_mcu7t5v0__fill_1
XANTENNA__682__CLK _686_/I VDD VSS gf180mcu_fd_sc_mcu7t5v0__antenna
XFILLER_0_212 VDD VSS gf180mcu_fd_sc_mcu7t5v0__fillcap_4
XFILLER_0_201 VDD VSS gf180mcu_fd_sc_mcu7t5v0__fillcap_8
XTAP_127 VDD VSS gf180mcu_fd_sc_mcu7t5v0__filltie
X_573_ _573_/A1 _604_/B _573_/ZN VDD VSS gf180mcu_fd_sc_mcu7t5v0__nand2_1
XTAP_116 VDD VSS gf180mcu_fd_sc_mcu7t5v0__filltie
XTAP_105 VDD VSS gf180mcu_fd_sc_mcu7t5v0__filltie
X_642_ _642_/I _642_/Z VDD VSS gf180mcu_fd_sc_mcu7t5v0__clkbuf_1
XFILLER_7_81 VDD VSS gf180mcu_fd_sc_mcu7t5v0__fill_1
X_625_ _622_/Z _619_/Z _626_/I VDD VSS gf180mcu_fd_sc_mcu7t5v0__nor2_1
XANTENNA__486__I _646_/I VDD VSS gf180mcu_fd_sc_mcu7t5v0__antenna
Xringosc.dstage\[5\].id.delaybuf0 ringosc.dstage\[5\].id.delaybuf0/I rebuffer2/I VDD
+ VSS gf180mcu_fd_sc_mcu7t5v0__clkbuf_1
X_556_ _582_/A1 _556_/A2 _565_/C VDD VSS gf180mcu_fd_sc_mcu7t5v0__nand2_1
X_487_ _507_/I _487_/Z VDD VSS gf180mcu_fd_sc_mcu7t5v0__buf_1
XANTENNA_input1_I dco VDD VSS gf180mcu_fd_sc_mcu7t5v0__antenna
Xringosc.dstage\[1\].id.delayenb0 ringosc.dstage\[1\].id.trim0bar/ZN ringosc.dstage\[1\].id.delayenb1/I
+ ringosc.dstage\[2\].id.delaybuf0/I VDD VSS gf180mcu_fd_sc_mcu7t5v0__invz_1
X_410_ _410_/A1 _563_/A2 _407_/I _425_/I1 VDD VSS gf180mcu_fd_sc_mcu7t5v0__nand3_1
X_341_ _667_/Q _682_/Q _341_/Z VDD VSS gf180mcu_fd_sc_mcu7t5v0__xor2_1
Xringosc.dstage\[8\].id.delayint0 ringosc.dstage\[8\].id.delayint0/I ringosc.dstage\[8\].id.delayen0/I
+ VDD VSS gf180mcu_fd_sc_mcu7t5v0__clkinv_2
X_539_ _539_/I _580_/A1 VDD VSS gf180mcu_fd_sc_mcu7t5v0__clkinv_1
X_608_ _643_/I _609_/I VDD VSS gf180mcu_fd_sc_mcu7t5v0__clkbuf_1
XFILLER_4_71 VDD VSS gf180mcu_fd_sc_mcu7t5v0__fill_1
X_324_ _669_/Q _324_/Z VDD VSS gf180mcu_fd_sc_mcu7t5v0__clkbuf_1
XFILLER_20_37 VDD VSS gf180mcu_fd_sc_mcu7t5v0__fillcap_4
X_572_ _569_/Z _572_/A2 _582_/A4 _604_/B VDD VSS gf180mcu_fd_sc_mcu7t5v0__nand3_1
X_641_ _634_/Z _631_/Z _642_/I VDD VSS gf180mcu_fd_sc_mcu7t5v0__nor2_1
Xoutput36 _686_/Z clockp[0] VDD VSS gf180mcu_fd_sc_mcu7t5v0__clkbuf_4
XFILLER_0_279 VDD VSS gf180mcu_fd_sc_mcu7t5v0__filltie
XTAP_128 VDD VSS gf180mcu_fd_sc_mcu7t5v0__filltie
XTAP_117 VDD VSS gf180mcu_fd_sc_mcu7t5v0__filltie
XTAP_106 VDD VSS gf180mcu_fd_sc_mcu7t5v0__filltie
XPHY_0 VDD VSS gf180mcu_fd_sc_mcu7t5v0__endcap
XFILLER_13_139 VDD VSS gf180mcu_fd_sc_mcu7t5v0__filltie
X_555_ _412_/Z _571_/A2 _556_/A2 VDD VSS gf180mcu_fd_sc_mcu7t5v0__nand2_1
X_624_ _624_/I _624_/Z VDD VSS gf180mcu_fd_sc_mcu7t5v0__clkbuf_1
X_486_ _646_/I _486_/Z VDD VSS gf180mcu_fd_sc_mcu7t5v0__clkbuf_1
XANTENNA__672__CLK _686_/I VDD VSS gf180mcu_fd_sc_mcu7t5v0__antenna
XFILLER_8_176 VDD VSS gf180mcu_fd_sc_mcu7t5v0__fill_1
Xringosc.dstage\[5\].id.delaybuf1 rebuffer2/Z ringosc.dstage\[5\].id.delayen1/I VDD
+ VSS gf180mcu_fd_sc_mcu7t5v0__clkbuf_1
Xringosc.dstage\[1\].id.delayenb1 ringosc.dstage\[1\].id.trim1bar/ZN ringosc.dstage\[1\].id.delayenb1/I
+ ringosc.dstage\[1\].id.delayint0/I VDD VSS gf180mcu_fd_sc_mcu7t5v0__invz_1
X_538_ _538_/I _541_/A1 VDD VSS gf180mcu_fd_sc_mcu7t5v0__clkinv_1
X_340_ _340_/I _340_/Z VDD VSS gf180mcu_fd_sc_mcu7t5v0__buf_1
X_607_ input7/Z _607_/A2 _643_/I VDD VSS gf180mcu_fd_sc_mcu7t5v0__nand2_1
Xringosc.dstage\[1\].id.delayen0 _493_/ZN ringosc.dstage\[1\].id.delayen0/I ringosc.dstage\[2\].id.delaybuf0/I
+ VDD VSS gf180mcu_fd_sc_mcu7t5v0__invz_1
X_469_ _459_/Z _469_/A2 _469_/Z VDD VSS gf180mcu_fd_sc_mcu7t5v0__or2_1
XFILLER_14_267 VDD VSS gf180mcu_fd_sc_mcu7t5v0__fillcap_4
XFILLER_2_105 VDD VSS gf180mcu_fd_sc_mcu7t5v0__fill_1
X_323_ _323_/I _685_/D VDD VSS gf180mcu_fd_sc_mcu7t5v0__clkbuf_1
XANTENNA_ringosc.dstage\[0\].id.delayen1_EN _546_/ZN VDD VSS gf180mcu_fd_sc_mcu7t5v0__antenna
XFILLER_1_4 VDD VSS gf180mcu_fd_sc_mcu7t5v0__fill_1
XFILLER_10_270 VDD VSS gf180mcu_fd_sc_mcu7t5v0__filltie
XFILLER_6_274 VDD VSS gf180mcu_fd_sc_mcu7t5v0__fillcap_4
XANTENNA_input32_I ext_trim[8] VDD VSS gf180mcu_fd_sc_mcu7t5v0__antenna
Xringosc.dstage\[1\].id.trim1bar _562_/ZN ringosc.dstage\[1\].id.trim1bar/ZN VDD VSS
+ gf180mcu_fd_sc_mcu7t5v0__clkinv_1
XFILLER_1_73 VDD VSS gf180mcu_fd_sc_mcu7t5v0__fill_1
X_571_ _539_/I _571_/A2 _582_/A4 VDD VSS gf180mcu_fd_sc_mcu7t5v0__nand2_1
X_640_ _640_/I _640_/Z VDD VSS gf180mcu_fd_sc_mcu7t5v0__clkbuf_1
XFILLER_0_247 VDD VSS gf180mcu_fd_sc_mcu7t5v0__fillcap_32
Xoutput37 output37/I clockp[1] VDD VSS gf180mcu_fd_sc_mcu7t5v0__buf_8
XTAP_129 VDD VSS gf180mcu_fd_sc_mcu7t5v0__filltie
XTAP_118 VDD VSS gf180mcu_fd_sc_mcu7t5v0__filltie
XTAP_107 VDD VSS gf180mcu_fd_sc_mcu7t5v0__filltie
XPHY_1 VDD VSS gf180mcu_fd_sc_mcu7t5v0__endcap
X_554_ _554_/A1 _584_/A1 _565_/B VDD VSS gf180mcu_fd_sc_mcu7t5v0__or2_1
X_485_ _510_/B _646_/I VDD VSS gf180mcu_fd_sc_mcu7t5v0__clkbuf_1
XFILLER_12_195 VDD VSS gf180mcu_fd_sc_mcu7t5v0__fillcap_4
XFILLER_12_151 VDD VSS gf180mcu_fd_sc_mcu7t5v0__fill_1
X_623_ _622_/Z _619_/Z _624_/I VDD VSS gf180mcu_fd_sc_mcu7t5v0__nor2_1
XFILLER_17_210 VDD VSS gf180mcu_fd_sc_mcu7t5v0__filltie
XFILLER_17_276 VDD VSS gf180mcu_fd_sc_mcu7t5v0__fillcap_4
Xringosc.dstage\[1\].id.delayen1 _562_/ZN ringosc.dstage\[1\].id.delayen1/I ringosc.dstage\[1\].id.delayint0/I
+ VDD VSS gf180mcu_fd_sc_mcu7t5v0__invz_1
X_537_ _537_/I _537_/ZN VDD VSS gf180mcu_fd_sc_mcu7t5v0__clkinv_1
X_606_ _606_/I _606_/ZN VDD VSS gf180mcu_fd_sc_mcu7t5v0__clkinv_1
X_468_ _332_/Z _335_/Z _468_/B _469_/A2 VDD VSS gf180mcu_fd_sc_mcu7t5v0__aoi21_1
X_399_ _393_/Z _399_/A2 _457_/A2 VDD VSS gf180mcu_fd_sc_mcu7t5v0__nand2_1
Xringosc.dstage\[1\].id.delaybuf0 ringosc.dstage\[1\].id.delaybuf0/I ringosc.dstage\[1\].id.delayenb1/I
+ VDD VSS gf180mcu_fd_sc_mcu7t5v0__clkbuf_1
X_322_ _461_/A1 _464_/B _322_/B _323_/I VDD VSS gf180mcu_fd_sc_mcu7t5v0__oai21_1
Xringosc.dstage\[4\].id.delayint0 ringosc.dstage\[4\].id.delayint0/I ringosc.dstage\[4\].id.delayen0/I
+ VDD VSS gf180mcu_fd_sc_mcu7t5v0__clkinv_2
XANTENNA__685__CLK _686_/I VDD VSS gf180mcu_fd_sc_mcu7t5v0__antenna
XANTENNA_input25_I ext_trim[25] VDD VSS gf180mcu_fd_sc_mcu7t5v0__antenna
XFILLER_3_212 VDD VSS gf180mcu_fd_sc_mcu7t5v0__fill_1
Xringosc.dstage\[0\].id.trim0bar _484_/Z ringosc.dstage\[0\].id.trim0bar/ZN VDD VSS
+ gf180mcu_fd_sc_mcu7t5v0__clkinv_1
Xringosc.dstage\[9\].id.delayen0 _532_/ZN ringosc.dstage\[9\].id.delayen0/I ringosc.dstage\[9\].id.delayen0/ZN
+ VDD VSS gf180mcu_fd_sc_mcu7t5v0__invz_1
X_570_ _570_/A1 _584_/A1 _572_/A2 VDD VSS gf180mcu_fd_sc_mcu7t5v0__nor2_1
XFILLER_16_105 VDD VSS gf180mcu_fd_sc_mcu7t5v0__fill_1
XFILLER_0_226 VDD VSS gf180mcu_fd_sc_mcu7t5v0__fillcap_16
XTAP_119 VDD VSS gf180mcu_fd_sc_mcu7t5v0__filltie
XTAP_108 VDD VSS gf180mcu_fd_sc_mcu7t5v0__filltie
XPHY_2 VDD VSS gf180mcu_fd_sc_mcu7t5v0__endcap
XFILLER_21_141 VDD VSS gf180mcu_fd_sc_mcu7t5v0__fill_1
XFILLER_7_73 VDD VSS gf180mcu_fd_sc_mcu7t5v0__filltie
X_553_ _575_/A2 _522_/Z _588_/A3 _520_/Z _553_/C _584_/A1 VDD VSS gf180mcu_fd_sc_mcu7t5v0__oai221_2
X_484_ _484_/I _484_/Z VDD VSS gf180mcu_fd_sc_mcu7t5v0__clkbuf_1
X_622_ _622_/I _622_/Z VDD VSS gf180mcu_fd_sc_mcu7t5v0__clkbuf_1
Xringosc.dstage\[9\].id.trim1bar _598_/ZN ringosc.dstage\[9\].id.trim1bar/ZN VDD VSS
+ gf180mcu_fd_sc_mcu7t5v0__clkinv_1
XANTENNA__564__A1 _604_/A1 VDD VSS gf180mcu_fd_sc_mcu7t5v0__antenna
X_536_ _529_/Z _536_/A2 _505_/B _536_/B2 _537_/I VDD VSS gf180mcu_fd_sc_mcu7t5v0__aoi22_1
X_605_ _529_/Z _605_/A2 _605_/B _606_/I VDD VSS gf180mcu_fd_sc_mcu7t5v0__aoi21_1
XFILLER_4_181 VDD VSS gf180mcu_fd_sc_mcu7t5v0__fill_1
X_467_ _670_/Q _324_/Z _459_/Z _475_/A3 VDD VSS gf180mcu_fd_sc_mcu7t5v0__nand3_1
X_398_ _398_/A1 _397_/Z _399_/A2 VDD VSS gf180mcu_fd_sc_mcu7t5v0__nor2_1
Xringosc.dstage\[1\].id.delaybuf1 ringosc.dstage\[1\].id.delayenb1/I ringosc.dstage\[1\].id.delayen1/I
+ VDD VSS gf180mcu_fd_sc_mcu7t5v0__clkbuf_1
X_321_ _685_/Q _464_/B _322_/B VDD VSS gf180mcu_fd_sc_mcu7t5v0__nand2_1
X_519_ _495_/Z _519_/A2 _563_/A2 _519_/B2 _519_/ZN VDD VSS gf180mcu_fd_sc_mcu7t5v0__aoi22_1
XFILLER_13_280 VDD VSS gf180mcu_fd_sc_mcu7t5v0__fill_1
XANTENNA__519__A1 _495_/Z VDD VSS gf180mcu_fd_sc_mcu7t5v0__antenna
XFILLER_10_250 VDD VSS gf180mcu_fd_sc_mcu7t5v0__fillcap_16
XFILLER_10_272 VDD VSS gf180mcu_fd_sc_mcu7t5v0__fill_1
XANTENNA_input18_I ext_trim[19] VDD VSS gf180mcu_fd_sc_mcu7t5v0__antenna
XFILLER_10_51 VDD VSS gf180mcu_fd_sc_mcu7t5v0__filltie
XFILLER_19_136 VDD VSS gf180mcu_fd_sc_mcu7t5v0__fill_1
XANTENNA__675__CLK _686_/I VDD VSS gf180mcu_fd_sc_mcu7t5v0__antenna
XFILLER_3_279 VDD VSS gf180mcu_fd_sc_mcu7t5v0__filltie
Xringosc.dstage\[9\].id.delayen1 _598_/ZN ringosc.dstage\[9\].id.delayen1/I ringosc.dstage\[9\].id.delayint0/I
+ VDD VSS gf180mcu_fd_sc_mcu7t5v0__invz_1
XFILLER_0_216 VDD VSS gf180mcu_fd_sc_mcu7t5v0__filltie
XTAP_109 VDD VSS gf180mcu_fd_sc_mcu7t5v0__filltie
XFILLER_11_8 VDD VSS gf180mcu_fd_sc_mcu7t5v0__fill_1
XPHY_3 VDD VSS gf180mcu_fd_sc_mcu7t5v0__endcap
X_552_ _487_/Z _563_/A2 _588_/A3 VDD VSS gf180mcu_fd_sc_mcu7t5v0__nand2_2
X_483_ input8/Z _483_/I1 _561_/I _484_/I VDD VSS gf180mcu_fd_sc_mcu7t5v0__mux2_2
X_621_ _621_/I _621_/Z VDD VSS gf180mcu_fd_sc_mcu7t5v0__clkbuf_1
XFILLER_12_164 VDD VSS gf180mcu_fd_sc_mcu7t5v0__fill_1
XFILLER_8_135 VDD VSS gf180mcu_fd_sc_mcu7t5v0__fillcap_4
XFILLER_8_157 VDD VSS gf180mcu_fd_sc_mcu7t5v0__fill_1
XFILLER_8_179 VDD VSS gf180mcu_fd_sc_mcu7t5v0__fillcap_4
XFILLER_17_212 VDD VSS gf180mcu_fd_sc_mcu7t5v0__fill_1
X_535_ _575_/A2 _570_/A1 _536_/B2 VDD VSS gf180mcu_fd_sc_mcu7t5v0__nand2_1
X_604_ _604_/A1 _563_/Z _604_/B _605_/B VDD VSS gf180mcu_fd_sc_mcu7t5v0__aoi21_1
X_397_ _349_/B _397_/A2 _387_/B _397_/A4 _397_/Z VDD VSS gf180mcu_fd_sc_mcu7t5v0__and4_1
X_466_ _466_/I _669_/D VDD VSS gf180mcu_fd_sc_mcu7t5v0__clkbuf_1
Xringosc.dstage\[8\].id.trim0bar _528_/ZN ringosc.dstage\[8\].id.trim0bar/ZN VDD VSS
+ gf180mcu_fd_sc_mcu7t5v0__clkinv_1
XFILLER_14_237 VDD VSS gf180mcu_fd_sc_mcu7t5v0__fillcap_4
X_320_ _329_/I _464_/B VDD VSS gf180mcu_fd_sc_mcu7t5v0__clkinv_1
X_518_ _507_/Z _539_/I _622_/I _519_/B2 VDD VSS gf180mcu_fd_sc_mcu7t5v0__nor3_1
XFILLER_13_270 VDD VSS gf180mcu_fd_sc_mcu7t5v0__fillcap_8
X_449_ _442_/Z _452_/B _450_/B VDD VSS gf180mcu_fd_sc_mcu7t5v0__nand2_1
XFILLER_6_244 VDD VSS gf180mcu_fd_sc_mcu7t5v0__fillcap_4
XFILLER_6_266 VDD VSS gf180mcu_fd_sc_mcu7t5v0__fillcap_8
Xringosc.dstage\[0\].id.delayint0 ringosc.dstage\[0\].id.delayint0/I ringosc.dstage\[0\].id.delayen0/I
+ VDD VSS gf180mcu_fd_sc_mcu7t5v0__clkinv_2
Xringosc.iss.reseten0 _609_/Z ringosc.iss.reseten0/I ringosc.ibufp00/I VDD VSS gf180mcu_fd_sc_mcu7t5v0__invz_2
XFILLER_10_74 VDD VSS gf180mcu_fd_sc_mcu7t5v0__filltie
XFILLER_2_280 VDD VSS gf180mcu_fd_sc_mcu7t5v0__fill_1
XANTENNA_input30_I ext_trim[6] VDD VSS gf180mcu_fd_sc_mcu7t5v0__antenna
XFILLER_15_140 VDD VSS gf180mcu_fd_sc_mcu7t5v0__filltie
XPHY_4 VDD VSS gf180mcu_fd_sc_mcu7t5v0__endcap
X_551_ _551_/A1 _569_/A2 _554_/A1 VDD VSS gf180mcu_fd_sc_mcu7t5v0__nand2_1
X_620_ _610_/Z _619_/Z _621_/I VDD VSS gf180mcu_fd_sc_mcu7t5v0__nor2_1
XANTENNA__665__CLK _686_/I VDD VSS gf180mcu_fd_sc_mcu7t5v0__antenna
X_482_ _510_/B _561_/I VDD VSS gf180mcu_fd_sc_mcu7t5v0__clkinv_1
XFILLER_12_187 VDD VSS gf180mcu_fd_sc_mcu7t5v0__fillcap_8
Xringosc.dstage\[8\].id.delayenb0 ringosc.dstage\[8\].id.trim0bar/ZN ringosc.dstage\[8\].id.delayenb1/I
+ ringosc.dstage\[9\].id.delaybuf0/I VDD VSS gf180mcu_fd_sc_mcu7t5v0__invz_1
X_603_ _603_/A1 _603_/A2 _603_/ZN VDD VSS gf180mcu_fd_sc_mcu7t5v0__nand2_1
X_534_ _534_/I _534_/ZN VDD VSS gf180mcu_fd_sc_mcu7t5v0__clkinv_1
X_396_ input2/Z _396_/A2 _396_/B _396_/C _397_/A4 VDD VSS gf180mcu_fd_sc_mcu7t5v0__aoi211_1
X_465_ _465_/A1 _465_/A2 _466_/I VDD VSS gf180mcu_fd_sc_mcu7t5v0__nor2_1
X_517_ _517_/I _519_/A2 VDD VSS gf180mcu_fd_sc_mcu7t5v0__clkinv_1
X_448_ _414_/Z _448_/A2 _448_/Z VDD VSS gf180mcu_fd_sc_mcu7t5v0__and2_1
XFILLER_9_264 VDD VSS gf180mcu_fd_sc_mcu7t5v0__fillcap_16
X_379_ _324_/Z _684_/Q _380_/B VDD VSS gf180mcu_fd_sc_mcu7t5v0__nand2_1