* NGSPICE file created from housekeeping.ext - technology: gf180mcuC

* Black-box entry subcircuit for gf180mcu_fd_sc_mcu7t5v0__fill_1 abstract view
.subckt gf180mcu_fd_sc_mcu7t5v0__fill_1 VDD VSS
.ends

* Black-box entry subcircuit for gf180mcu_fd_sc_mcu7t5v0__fillcap_4 abstract view
.subckt gf180mcu_fd_sc_mcu7t5v0__fillcap_4 VDD VSS
.ends

* Black-box entry subcircuit for gf180mcu_fd_sc_mcu7t5v0__fill_2 abstract view
.subckt gf180mcu_fd_sc_mcu7t5v0__fill_2 VDD VSS
.ends

* Black-box entry subcircuit for gf180mcu_fd_sc_mcu7t5v0__dffrnq_1 abstract view
.subckt gf180mcu_fd_sc_mcu7t5v0__dffrnq_1 D RN CLK Q VDD VSS
.ends

* Black-box entry subcircuit for gf180mcu_fd_sc_mcu7t5v0__dffrnq_2 abstract view
.subckt gf180mcu_fd_sc_mcu7t5v0__dffrnq_2 D RN CLK Q VDD VSS
.ends

* Black-box entry subcircuit for gf180mcu_fd_sc_mcu7t5v0__fillcap_8 abstract view
.subckt gf180mcu_fd_sc_mcu7t5v0__fillcap_8 VDD VSS
.ends

* Black-box entry subcircuit for gf180mcu_fd_sc_mcu7t5v0__mux2_2 abstract view
.subckt gf180mcu_fd_sc_mcu7t5v0__mux2_2 I0 I1 S Z VDD VSS
.ends

* Black-box entry subcircuit for gf180mcu_fd_sc_mcu7t5v0__fillcap_16 abstract view
.subckt gf180mcu_fd_sc_mcu7t5v0__fillcap_16 VDD VSS
.ends

* Black-box entry subcircuit for gf180mcu_fd_sc_mcu7t5v0__nand4_4 abstract view
.subckt gf180mcu_fd_sc_mcu7t5v0__nand4_4 A1 A2 A3 A4 ZN VDD VSS
.ends

* Black-box entry subcircuit for gf180mcu_fd_sc_mcu7t5v0__dlyb_4 abstract view
.subckt gf180mcu_fd_sc_mcu7t5v0__dlyb_4 I Z VDD VSS
.ends

* Black-box entry subcircuit for gf180mcu_fd_sc_mcu7t5v0__fillcap_64 abstract view
.subckt gf180mcu_fd_sc_mcu7t5v0__fillcap_64 VDD VSS
.ends

* Black-box entry subcircuit for gf180mcu_fd_sc_mcu7t5v0__fillcap_32 abstract view
.subckt gf180mcu_fd_sc_mcu7t5v0__fillcap_32 VDD VSS
.ends

* Black-box entry subcircuit for gf180mcu_fd_sc_mcu7t5v0__filltie abstract view
.subckt gf180mcu_fd_sc_mcu7t5v0__filltie VDD VSS
.ends

* Black-box entry subcircuit for gf180mcu_fd_sc_mcu7t5v0__clkbuf_16 abstract view
.subckt gf180mcu_fd_sc_mcu7t5v0__clkbuf_16 I Z VDD VSS
.ends

* Black-box entry subcircuit for gf180mcu_fd_sc_mcu7t5v0__or4_4 abstract view
.subckt gf180mcu_fd_sc_mcu7t5v0__or4_4 A1 A2 A3 A4 Z VDD VSS
.ends

* Black-box entry subcircuit for gf180mcu_fd_sc_mcu7t5v0__nor2_2 abstract view
.subckt gf180mcu_fd_sc_mcu7t5v0__nor2_2 A1 A2 ZN VDD VSS
.ends

* Black-box entry subcircuit for gf180mcu_fd_sc_mcu7t5v0__and2_4 abstract view
.subckt gf180mcu_fd_sc_mcu7t5v0__and2_4 A1 A2 Z VDD VSS
.ends

* Black-box entry subcircuit for gf180mcu_fd_sc_mcu7t5v0__nor2_4 abstract view
.subckt gf180mcu_fd_sc_mcu7t5v0__nor2_4 A1 A2 ZN VDD VSS
.ends

* Black-box entry subcircuit for gf180mcu_fd_sc_mcu7t5v0__clkinv_1 abstract view
.subckt gf180mcu_fd_sc_mcu7t5v0__clkinv_1 I ZN VDD VSS
.ends

* Black-box entry subcircuit for gf180mcu_fd_sc_mcu7t5v0__aoi22_4 abstract view
.subckt gf180mcu_fd_sc_mcu7t5v0__aoi22_4 A1 A2 B1 B2 ZN VDD VSS
.ends

* Black-box entry subcircuit for gf180mcu_fd_sc_mcu7t5v0__and4_4 abstract view
.subckt gf180mcu_fd_sc_mcu7t5v0__and4_4 A1 A2 A3 A4 Z VDD VSS
.ends

* Black-box entry subcircuit for gf180mcu_fd_sc_mcu7t5v0__dffrnq_4 abstract view
.subckt gf180mcu_fd_sc_mcu7t5v0__dffrnq_4 D RN CLK Q VDD VSS
.ends

* Black-box entry subcircuit for gf180mcu_fd_sc_mcu7t5v0__dffsnq_2 abstract view
.subckt gf180mcu_fd_sc_mcu7t5v0__dffsnq_2 D SETN CLK Q VDD VSS
.ends

* Black-box entry subcircuit for gf180mcu_fd_sc_mcu7t5v0__clkbuf_4 abstract view
.subckt gf180mcu_fd_sc_mcu7t5v0__clkbuf_4 I Z VDD VSS
.ends

* Black-box entry subcircuit for gf180mcu_fd_sc_mcu7t5v0__clkbuf_2 abstract view
.subckt gf180mcu_fd_sc_mcu7t5v0__clkbuf_2 I Z VDD VSS
.ends

* Black-box entry subcircuit for gf180mcu_fd_sc_mcu7t5v0__clkbuf_8 abstract view
.subckt gf180mcu_fd_sc_mcu7t5v0__clkbuf_8 I Z VDD VSS
.ends

* Black-box entry subcircuit for gf180mcu_fd_sc_mcu7t5v0__oai32_4 abstract view
.subckt gf180mcu_fd_sc_mcu7t5v0__oai32_4 A1 A2 A3 B1 B2 ZN VDD VSS
.ends

* Black-box entry subcircuit for gf180mcu_fd_sc_mcu7t5v0__oai211_4 abstract view
.subckt gf180mcu_fd_sc_mcu7t5v0__oai211_4 A1 A2 B C ZN VDD VSS
.ends

* Black-box entry subcircuit for gf180mcu_fd_sc_mcu7t5v0__buf_4 abstract view
.subckt gf180mcu_fd_sc_mcu7t5v0__buf_4 I Z VDD VSS
.ends

* Black-box entry subcircuit for gf180mcu_fd_sc_mcu7t5v0__and3_4 abstract view
.subckt gf180mcu_fd_sc_mcu7t5v0__and3_4 A1 A2 A3 Z VDD VSS
.ends

* Black-box entry subcircuit for gf180mcu_fd_sc_mcu7t5v0__mux2_4 abstract view
.subckt gf180mcu_fd_sc_mcu7t5v0__mux2_4 I0 I1 S Z VDD VSS
.ends

* Black-box entry subcircuit for gf180mcu_fd_sc_mcu7t5v0__aoi222_4 abstract view
.subckt gf180mcu_fd_sc_mcu7t5v0__aoi222_4 A1 A2 B1 B2 C1 C2 ZN VDD VSS
.ends

* Black-box entry subcircuit for gf180mcu_fd_sc_mcu7t5v0__aoi21_4 abstract view
.subckt gf180mcu_fd_sc_mcu7t5v0__aoi21_4 A1 A2 B ZN VDD VSS
.ends

* Black-box entry subcircuit for gf180mcu_fd_sc_mcu7t5v0__aoi221_4 abstract view
.subckt gf180mcu_fd_sc_mcu7t5v0__aoi221_4 A1 A2 B1 B2 C ZN VDD VSS
.ends

* Black-box entry subcircuit for gf180mcu_fd_sc_mcu7t5v0__inv_2 abstract view
.subckt gf180mcu_fd_sc_mcu7t5v0__inv_2 I ZN VDD VSS
.ends

* Black-box entry subcircuit for gf180mcu_fd_sc_mcu7t5v0__or3_4 abstract view
.subckt gf180mcu_fd_sc_mcu7t5v0__or3_4 A1 A2 A3 Z VDD VSS
.ends

* Black-box entry subcircuit for gf180mcu_fd_sc_mcu7t5v0__endcap abstract view
.subckt gf180mcu_fd_sc_mcu7t5v0__endcap VDD VSS
.ends

* Black-box entry subcircuit for gf180mcu_fd_sc_mcu7t5v0__antenna abstract view
.subckt gf180mcu_fd_sc_mcu7t5v0__antenna I VDD VSS
.ends

* Black-box entry subcircuit for gf180mcu_fd_sc_mcu7t5v0__dffq_1 abstract view
.subckt gf180mcu_fd_sc_mcu7t5v0__dffq_1 D CLK Q VDD VSS
.ends

* Black-box entry subcircuit for gf180mcu_fd_sc_mcu7t5v0__nand2_4 abstract view
.subckt gf180mcu_fd_sc_mcu7t5v0__nand2_4 A1 A2 ZN VDD VSS
.ends

* Black-box entry subcircuit for gf180mcu_fd_sc_mcu7t5v0__clkbuf_1 abstract view
.subckt gf180mcu_fd_sc_mcu7t5v0__clkbuf_1 I Z VDD VSS
.ends

* Black-box entry subcircuit for gf180mcu_fd_sc_mcu7t5v0__dffsnq_4 abstract view
.subckt gf180mcu_fd_sc_mcu7t5v0__dffsnq_4 D SETN CLK Q VDD VSS
.ends

* Black-box entry subcircuit for gf180mcu_fd_sc_mcu7t5v0__oai22_4 abstract view
.subckt gf180mcu_fd_sc_mcu7t5v0__oai22_4 A1 A2 B1 B2 ZN VDD VSS
.ends

* Black-box entry subcircuit for gf180mcu_fd_sc_mcu7t5v0__oai31_4 abstract view
.subckt gf180mcu_fd_sc_mcu7t5v0__oai31_4 A1 A2 A3 B ZN VDD VSS
.ends

* Black-box entry subcircuit for gf180mcu_fd_sc_mcu7t5v0__clkinv_2 abstract view
.subckt gf180mcu_fd_sc_mcu7t5v0__clkinv_2 I ZN VDD VSS
.ends

* Black-box entry subcircuit for gf180mcu_fd_sc_mcu7t5v0__nor3_4 abstract view
.subckt gf180mcu_fd_sc_mcu7t5v0__nor3_4 A1 A2 A3 ZN VDD VSS
.ends

* Black-box entry subcircuit for gf180mcu_fd_sc_mcu7t5v0__aoi211_4 abstract view
.subckt gf180mcu_fd_sc_mcu7t5v0__aoi211_4 A1 A2 B C ZN VDD VSS
.ends

* Black-box entry subcircuit for gf180mcu_fd_sc_mcu7t5v0__nand3_4 abstract view
.subckt gf180mcu_fd_sc_mcu7t5v0__nand3_4 A1 A2 A3 ZN VDD VSS
.ends

* Black-box entry subcircuit for gf180mcu_fd_sc_mcu7t5v0__oai221_4 abstract view
.subckt gf180mcu_fd_sc_mcu7t5v0__oai221_4 A1 A2 B1 B2 C ZN VDD VSS
.ends

* Black-box entry subcircuit for gf180mcu_fd_sc_mcu7t5v0__inv_1 abstract view
.subckt gf180mcu_fd_sc_mcu7t5v0__inv_1 I ZN VDD VSS
.ends

* Black-box entry subcircuit for gf180mcu_fd_sc_mcu7t5v0__nor4_4 abstract view
.subckt gf180mcu_fd_sc_mcu7t5v0__nor4_4 A1 A2 A3 A4 ZN VDD VSS
.ends

* Black-box entry subcircuit for gf180mcu_fd_sc_mcu7t5v0__xor2_2 abstract view
.subckt gf180mcu_fd_sc_mcu7t5v0__xor2_2 A1 A2 Z VDD VSS
.ends

* Black-box entry subcircuit for gf180mcu_fd_sc_mcu7t5v0__oai21_4 abstract view
.subckt gf180mcu_fd_sc_mcu7t5v0__oai21_4 A1 A2 B ZN VDD VSS
.ends

* Black-box entry subcircuit for gf180mcu_fd_sc_mcu7t5v0__xor2_1 abstract view
.subckt gf180mcu_fd_sc_mcu7t5v0__xor2_1 A1 A2 Z VDD VSS
.ends

* Black-box entry subcircuit for gf180mcu_fd_sc_mcu7t5v0__clkbuf_3 abstract view
.subckt gf180mcu_fd_sc_mcu7t5v0__clkbuf_3 I Z VDD VSS
.ends

* Black-box entry subcircuit for gf180mcu_fd_sc_mcu7t5v0__buf_8 abstract view
.subckt gf180mcu_fd_sc_mcu7t5v0__buf_8 I Z VDD VSS
.ends

* Black-box entry subcircuit for gf180mcu_fd_sc_mcu7t5v0__xnor2_1 abstract view
.subckt gf180mcu_fd_sc_mcu7t5v0__xnor2_1 A1 A2 ZN VDD VSS
.ends

* Black-box entry subcircuit for gf180mcu_fd_sc_mcu7t5v0__dffsnq_1 abstract view
.subckt gf180mcu_fd_sc_mcu7t5v0__dffsnq_1 D SETN CLK Q VDD VSS
.ends

* Black-box entry subcircuit for gf180mcu_fd_sc_mcu7t5v0__clkinv_3 abstract view
.subckt gf180mcu_fd_sc_mcu7t5v0__clkinv_3 I ZN VDD VSS
.ends

* Black-box entry subcircuit for gf180mcu_fd_sc_mcu7t5v0__xor2_4 abstract view
.subckt gf180mcu_fd_sc_mcu7t5v0__xor2_4 A1 A2 Z VDD VSS
.ends

* Black-box entry subcircuit for gf180mcu_fd_sc_mcu7t5v0__clkbuf_12 abstract view
.subckt gf180mcu_fd_sc_mcu7t5v0__clkbuf_12 I Z VDD VSS
.ends

* Black-box entry subcircuit for gf180mcu_fd_sc_mcu7t5v0__inv_4 abstract view
.subckt gf180mcu_fd_sc_mcu7t5v0__inv_4 I ZN VDD VSS
.ends

* Black-box entry subcircuit for gf180mcu_fd_sc_mcu7t5v0__inv_3 abstract view
.subckt gf180mcu_fd_sc_mcu7t5v0__inv_3 I ZN VDD VSS
.ends

* Black-box entry subcircuit for gf180mcu_fd_sc_mcu7t5v0__dffnrnq_1 abstract view
.subckt gf180mcu_fd_sc_mcu7t5v0__dffnrnq_1 D RN CLKN Q VDD VSS
.ends

* Black-box entry subcircuit for gf180mcu_fd_sc_mcu7t5v0__tieh abstract view
.subckt gf180mcu_fd_sc_mcu7t5v0__tieh Z VDD VSS
.ends

* Black-box entry subcircuit for gf180mcu_fd_sc_mcu7t5v0__xnor2_2 abstract view
.subckt gf180mcu_fd_sc_mcu7t5v0__xnor2_2 A1 A2 ZN VDD VSS
.ends

* Black-box entry subcircuit for gf180mcu_fd_sc_mcu7t5v0__or2_4 abstract view
.subckt gf180mcu_fd_sc_mcu7t5v0__or2_4 A1 A2 Z VDD VSS
.ends

* Black-box entry subcircuit for gf180mcu_fd_sc_mcu7t5v0__dffnsnq_1 abstract view
.subckt gf180mcu_fd_sc_mcu7t5v0__dffnsnq_1 D SETN CLKN Q VDD VSS
.ends

* Black-box entry subcircuit for gf180mcu_fd_sc_mcu7t5v0__clkinv_4 abstract view
.subckt gf180mcu_fd_sc_mcu7t5v0__clkinv_4 I ZN VDD VSS
.ends

* Black-box entry subcircuit for gf180mcu_fd_sc_mcu7t5v0__clkinv_8 abstract view
.subckt gf180mcu_fd_sc_mcu7t5v0__clkinv_8 I ZN VDD VSS
.ends

* Black-box entry subcircuit for gf180mcu_fd_sc_mcu7t5v0__oai222_4 abstract view
.subckt gf180mcu_fd_sc_mcu7t5v0__oai222_4 A1 A2 B1 B2 C1 C2 ZN VDD VSS
.ends

.subckt housekeeping VDD VSS debug_in debug_mode debug_oeb debug_out irq[0] irq[1]
+ irq[2] mask_rev_in[0] mask_rev_in[10] mask_rev_in[11] mask_rev_in[12] mask_rev_in[13]
+ mask_rev_in[14] mask_rev_in[15] mask_rev_in[16] mask_rev_in[17] mask_rev_in[18]
+ mask_rev_in[19] mask_rev_in[1] mask_rev_in[20] mask_rev_in[21] mask_rev_in[22] mask_rev_in[23]
+ mask_rev_in[24] mask_rev_in[25] mask_rev_in[26] mask_rev_in[27] mask_rev_in[28]
+ mask_rev_in[29] mask_rev_in[2] mask_rev_in[30] mask_rev_in[31] mask_rev_in[3] mask_rev_in[4]
+ mask_rev_in[5] mask_rev_in[6] mask_rev_in[7] mask_rev_in[8] mask_rev_in[9] mgmt_gpio_in[0]
+ mgmt_gpio_in[10] mgmt_gpio_in[11] mgmt_gpio_in[12] mgmt_gpio_in[13] mgmt_gpio_in[14]
+ mgmt_gpio_in[15] mgmt_gpio_in[16] mgmt_gpio_in[17] mgmt_gpio_in[18] mgmt_gpio_in[19]
+ mgmt_gpio_in[1] mgmt_gpio_in[20] mgmt_gpio_in[21] mgmt_gpio_in[22] mgmt_gpio_in[23]
+ mgmt_gpio_in[24] mgmt_gpio_in[25] mgmt_gpio_in[26] mgmt_gpio_in[27] mgmt_gpio_in[28]
+ mgmt_gpio_in[29] mgmt_gpio_in[2] mgmt_gpio_in[30] mgmt_gpio_in[31] mgmt_gpio_in[32]
+ mgmt_gpio_in[33] mgmt_gpio_in[34] mgmt_gpio_in[35] mgmt_gpio_in[36] mgmt_gpio_in[37]
+ mgmt_gpio_in[3] mgmt_gpio_in[4] mgmt_gpio_in[5] mgmt_gpio_in[6] mgmt_gpio_in[7]
+ mgmt_gpio_in[8] mgmt_gpio_in[9] mgmt_gpio_oeb[0] mgmt_gpio_oeb[10] mgmt_gpio_oeb[11]
+ mgmt_gpio_oeb[12] mgmt_gpio_oeb[13] mgmt_gpio_oeb[14] mgmt_gpio_oeb[15] mgmt_gpio_oeb[16]
+ mgmt_gpio_oeb[17] mgmt_gpio_oeb[18] mgmt_gpio_oeb[19] mgmt_gpio_oeb[1] mgmt_gpio_oeb[20]
+ mgmt_gpio_oeb[21] mgmt_gpio_oeb[22] mgmt_gpio_oeb[23] mgmt_gpio_oeb[24] mgmt_gpio_oeb[25]
+ mgmt_gpio_oeb[26] mgmt_gpio_oeb[27] mgmt_gpio_oeb[28] mgmt_gpio_oeb[29] mgmt_gpio_oeb[2]
+ mgmt_gpio_oeb[30] mgmt_gpio_oeb[31] mgmt_gpio_oeb[32] mgmt_gpio_oeb[33] mgmt_gpio_oeb[34]
+ mgmt_gpio_oeb[35] mgmt_gpio_oeb[36] mgmt_gpio_oeb[37] mgmt_gpio_oeb[3] mgmt_gpio_oeb[4]
+ mgmt_gpio_oeb[5] mgmt_gpio_oeb[6] mgmt_gpio_oeb[7] mgmt_gpio_oeb[8] mgmt_gpio_oeb[9]
+ mgmt_gpio_out[0] mgmt_gpio_out[10] mgmt_gpio_out[11] mgmt_gpio_out[12] mgmt_gpio_out[13]
+ mgmt_gpio_out[14] mgmt_gpio_out[15] mgmt_gpio_out[16] mgmt_gpio_out[17] mgmt_gpio_out[18]
+ mgmt_gpio_out[19] mgmt_gpio_out[1] mgmt_gpio_out[20] mgmt_gpio_out[21] mgmt_gpio_out[22]
+ mgmt_gpio_out[23] mgmt_gpio_out[24] mgmt_gpio_out[25] mgmt_gpio_out[26] mgmt_gpio_out[27]
+ mgmt_gpio_out[28] mgmt_gpio_out[29] mgmt_gpio_out[2] mgmt_gpio_out[30] mgmt_gpio_out[31]
+ mgmt_gpio_out[32] mgmt_gpio_out[33] mgmt_gpio_out[34] mgmt_gpio_out[35] mgmt_gpio_out[36]
+ mgmt_gpio_out[37] mgmt_gpio_out[3] mgmt_gpio_out[4] mgmt_gpio_out[5] mgmt_gpio_out[6]
+ mgmt_gpio_out[7] mgmt_gpio_out[8] mgmt_gpio_out[9] pad_flash_clk pad_flash_clk_oe
+ pad_flash_csb pad_flash_csb_oe pad_flash_io0_di pad_flash_io0_do pad_flash_io0_ie
+ pad_flash_io0_oe pad_flash_io1_di pad_flash_io1_do pad_flash_io1_ie pad_flash_io1_oe
+ pll90_sel[0] pll90_sel[1] pll90_sel[2] pll_bypass pll_dco_ena pll_div[0] pll_div[1]
+ pll_div[2] pll_div[3] pll_div[4] pll_ena pll_sel[0] pll_sel[1] pll_sel[2] pll_trim[0]
+ pll_trim[10] pll_trim[11] pll_trim[12] pll_trim[13] pll_trim[14] pll_trim[15] pll_trim[16]
+ pll_trim[17] pll_trim[18] pll_trim[19] pll_trim[1] pll_trim[20] pll_trim[21] pll_trim[22]
+ pll_trim[23] pll_trim[24] pll_trim[25] pll_trim[2] pll_trim[3] pll_trim[4] pll_trim[5]
+ pll_trim[6] pll_trim[7] pll_trim[8] pll_trim[9] porb pwr_ctrl_out qspi_enabled reset
+ ser_rx ser_tx serial_clock serial_data_1 serial_data_2 serial_load serial_resetn
+ spi_csb spi_enabled spi_sck spi_sdi spi_sdo spi_sdoenb spimemio_flash_clk spimemio_flash_csb
+ spimemio_flash_io0_di spimemio_flash_io0_do spimemio_flash_io0_oeb spimemio_flash_io1_di
+ spimemio_flash_io1_do spimemio_flash_io1_oeb spimemio_flash_io2_di spimemio_flash_io2_do
+ spimemio_flash_io2_oeb spimemio_flash_io3_di spimemio_flash_io3_do spimemio_flash_io3_oeb
+ trap uart_enabled user_clock wb_ack_o wb_adr_i[0] wb_adr_i[10] wb_adr_i[11] wb_adr_i[12]
+ wb_adr_i[13] wb_adr_i[14] wb_adr_i[15] wb_adr_i[16] wb_adr_i[17] wb_adr_i[18] wb_adr_i[19]
+ wb_adr_i[1] wb_adr_i[20] wb_adr_i[21] wb_adr_i[22] wb_adr_i[23] wb_adr_i[24] wb_adr_i[25]
+ wb_adr_i[26] wb_adr_i[27] wb_adr_i[28] wb_adr_i[29] wb_adr_i[2] wb_adr_i[30] wb_adr_i[31]
+ wb_adr_i[3] wb_adr_i[4] wb_adr_i[5] wb_adr_i[6] wb_adr_i[7] wb_adr_i[8] wb_adr_i[9]
+ wb_clk_i wb_cyc_i wb_dat_i[0] wb_dat_i[10] wb_dat_i[11] wb_dat_i[12] wb_dat_i[13]
+ wb_dat_i[14] wb_dat_i[15] wb_dat_i[16] wb_dat_i[17] wb_dat_i[18] wb_dat_i[19] wb_dat_i[1]
+ wb_dat_i[20] wb_dat_i[21] wb_dat_i[22] wb_dat_i[23] wb_dat_i[24] wb_dat_i[25] wb_dat_i[26]
+ wb_dat_i[27] wb_dat_i[28] wb_dat_i[29] wb_dat_i[2] wb_dat_i[30] wb_dat_i[31] wb_dat_i[3]
+ wb_dat_i[4] wb_dat_i[5] wb_dat_i[6] wb_dat_i[7] wb_dat_i[8] wb_dat_i[9] wb_dat_o[0]
+ wb_dat_o[10] wb_dat_o[11] wb_dat_o[12] wb_dat_o[13] wb_dat_o[14] wb_dat_o[15] wb_dat_o[16]
+ wb_dat_o[17] wb_dat_o[18] wb_dat_o[19] wb_dat_o[1] wb_dat_o[20] wb_dat_o[21] wb_dat_o[22]
+ wb_dat_o[23] wb_dat_o[24] wb_dat_o[25] wb_dat_o[26] wb_dat_o[27] wb_dat_o[28] wb_dat_o[29]
+ wb_dat_o[2] wb_dat_o[30] wb_dat_o[31] wb_dat_o[3] wb_dat_o[4] wb_dat_o[5] wb_dat_o[6]
+ wb_dat_o[7] wb_dat_o[8] wb_dat_o[9] wb_rstn_i wb_sel_i[0] wb_sel_i[1] wb_sel_i[2]
+ wb_sel_i[3] wb_stb_i wb_we_i
XFILLER_95_851 VDD VSS gf180mcu_fd_sc_mcu7t5v0__fill_1
XFILLER_67_586 VDD VSS gf180mcu_fd_sc_mcu7t5v0__fillcap_4
XFILLER_27_428 VDD VSS gf180mcu_fd_sc_mcu7t5v0__fill_2
XFILLER_82_534 VDD VSS gf180mcu_fd_sc_mcu7t5v0__fill_1
XFILLER_54_247 VDD VSS gf180mcu_fd_sc_mcu7t5v0__fill_1
X_6914_ hold73/Z _6915_/RN _6914_/CLK hold72/I VDD VSS gf180mcu_fd_sc_mcu7t5v0__dffrnq_1
X_6845_ _6845_/D _7170_/RN _6845_/CLK _6845_/Q VDD VSS gf180mcu_fd_sc_mcu7t5v0__dffrnq_2
XFILLER_23_645 VDD VSS gf180mcu_fd_sc_mcu7t5v0__fill_2
XFILLER_161_1028 VDD VSS gf180mcu_fd_sc_mcu7t5v0__fillcap_8
XFILLER_11_818 VDD VSS gf180mcu_fd_sc_mcu7t5v0__fill_1
X_6776_ _6776_/D _7194_/RN _6776_/CLK _6776_/Q VDD VSS gf180mcu_fd_sc_mcu7t5v0__dffrnq_1
X_3988_ _3988_/I0 _6658_/Q _3988_/S _6658_/D VDD VSS gf180mcu_fd_sc_mcu7t5v0__mux2_2
XFILLER_167_138 VDD VSS gf180mcu_fd_sc_mcu7t5v0__fillcap_4
X_5727_ _5775_/I0 hold655/Z _5727_/S _5727_/Z VDD VSS gf180mcu_fd_sc_mcu7t5v0__mux2_2
XFILLER_182_108 VDD VSS gf180mcu_fd_sc_mcu7t5v0__fillcap_16
XFILLER_136_525 VDD VSS gf180mcu_fd_sc_mcu7t5v0__fill_2
X_5658_ hold977/Z _5796_/I0 _5664_/S _5658_/Z VDD VSS gf180mcu_fd_sc_mcu7t5v0__mux2_2
XFILLER_136_536 VDD VSS gf180mcu_fd_sc_mcu7t5v0__fill_1
XFILLER_50_1080 VDD VSS gf180mcu_fd_sc_mcu7t5v0__fill_1
X_4609_ _4601_/Z _5285_/B _4607_/Z _5021_/B _4612_/A1 VDD VSS gf180mcu_fd_sc_mcu7t5v0__nand4_4
XFILLER_184_28 VDD VSS gf180mcu_fd_sc_mcu7t5v0__fillcap_4
XFILLER_164_889 VDD VSS gf180mcu_fd_sc_mcu7t5v0__fill_1
XFILLER_11_1064 VDD VSS gf180mcu_fd_sc_mcu7t5v0__fill_1
X_5589_ hold556/Z _5781_/I0 hold34/Z _6952_/D VDD VSS gf180mcu_fd_sc_mcu7t5v0__mux2_2
XFILLER_123_208 VDD VSS gf180mcu_fd_sc_mcu7t5v0__fillcap_4
Xhold340 _5684_/Z _7036_/D VDD VSS gf180mcu_fd_sc_mcu7t5v0__dlyb_4
XFILLER_117_783 VDD VSS gf180mcu_fd_sc_mcu7t5v0__fillcap_8
Xhold351 _7041_/Q hold351/Z VDD VSS gf180mcu_fd_sc_mcu7t5v0__dlyb_4
Xhold362 _5649_/Z _7005_/D VDD VSS gf180mcu_fd_sc_mcu7t5v0__dlyb_4
Xhold373 _7058_/Q hold373/Z VDD VSS gf180mcu_fd_sc_mcu7t5v0__dlyb_4
Xhold384 _4224_/Z _6752_/D VDD VSS gf180mcu_fd_sc_mcu7t5v0__dlyb_4
XFILLER_78_818 VDD VSS gf180mcu_fd_sc_mcu7t5v0__fillcap_4
XFILLER_89_144 VDD VSS gf180mcu_fd_sc_mcu7t5v0__fillcap_64
XFILLER_105_978 VDD VSS gf180mcu_fd_sc_mcu7t5v0__fill_1
X_7259_ _7259_/D _7259_/RN _7260_/CLK _7259_/Q VDD VSS gf180mcu_fd_sc_mcu7t5v0__dffrnq_1
Xhold395 _5778_/Z _7119_/D VDD VSS gf180mcu_fd_sc_mcu7t5v0__dlyb_4
XFILLER_117_99 VDD VSS gf180mcu_fd_sc_mcu7t5v0__fillcap_32
XFILLER_58_531 VDD VSS gf180mcu_fd_sc_mcu7t5v0__fill_1
XFILLER_85_350 VDD VSS gf180mcu_fd_sc_mcu7t5v0__fillcap_4
Xhold1040 _6870_/Q _3799_/I1 VDD VSS gf180mcu_fd_sc_mcu7t5v0__dlyb_4
XTAP_3202 VDD VSS gf180mcu_fd_sc_mcu7t5v0__filltie
Xhold1051 _6917_/Q _5550_/I1 VDD VSS gf180mcu_fd_sc_mcu7t5v0__dlyb_4
XTAP_3213 VDD VSS gf180mcu_fd_sc_mcu7t5v0__filltie
Xhold1062 _6716_/Q _4174_/I1 VDD VSS gf180mcu_fd_sc_mcu7t5v0__dlyb_4
XTAP_3224 VDD VSS gf180mcu_fd_sc_mcu7t5v0__filltie
XTAP_3235 VDD VSS gf180mcu_fd_sc_mcu7t5v0__filltie
XTAP_2501 VDD VSS gf180mcu_fd_sc_mcu7t5v0__filltie
Xhold1073 _7304_/Q _3490_/I1 VDD VSS gf180mcu_fd_sc_mcu7t5v0__dlyb_4
XTAP_3246 VDD VSS gf180mcu_fd_sc_mcu7t5v0__filltie
XTAP_3257 VDD VSS gf180mcu_fd_sc_mcu7t5v0__filltie
XTAP_2512 VDD VSS gf180mcu_fd_sc_mcu7t5v0__filltie
XTAP_2523 VDD VSS gf180mcu_fd_sc_mcu7t5v0__filltie
XFILLER_61_707 VDD VSS gf180mcu_fd_sc_mcu7t5v0__fill_2
XFILLER_73_567 VDD VSS gf180mcu_fd_sc_mcu7t5v0__fill_1
XTAP_2534 VDD VSS gf180mcu_fd_sc_mcu7t5v0__filltie
XTAP_1800 VDD VSS gf180mcu_fd_sc_mcu7t5v0__filltie
XTAP_2545 VDD VSS gf180mcu_fd_sc_mcu7t5v0__filltie
XTAP_1811 VDD VSS gf180mcu_fd_sc_mcu7t5v0__filltie
XTAP_2556 VDD VSS gf180mcu_fd_sc_mcu7t5v0__filltie
XFILLER_165_2 VDD VSS gf180mcu_fd_sc_mcu7t5v0__fillcap_8
XTAP_1822 VDD VSS gf180mcu_fd_sc_mcu7t5v0__filltie
XTAP_2567 VDD VSS gf180mcu_fd_sc_mcu7t5v0__filltie
XTAP_1833 VDD VSS gf180mcu_fd_sc_mcu7t5v0__filltie
XTAP_2578 VDD VSS gf180mcu_fd_sc_mcu7t5v0__filltie
XTAP_1844 VDD VSS gf180mcu_fd_sc_mcu7t5v0__filltie
XTAP_2589 VDD VSS gf180mcu_fd_sc_mcu7t5v0__filltie
XTAP_1855 VDD VSS gf180mcu_fd_sc_mcu7t5v0__filltie
XTAP_1866 VDD VSS gf180mcu_fd_sc_mcu7t5v0__filltie
XFILLER_13_133 VDD VSS gf180mcu_fd_sc_mcu7t5v0__fill_2
XFILLER_14_667 VDD VSS gf180mcu_fd_sc_mcu7t5v0__fill_2
XFILLER_13_144 VDD VSS gf180mcu_fd_sc_mcu7t5v0__fillcap_8
XTAP_1877 VDD VSS gf180mcu_fd_sc_mcu7t5v0__filltie
XFILLER_186_414 VDD VSS gf180mcu_fd_sc_mcu7t5v0__fillcap_8
XTAP_1888 VDD VSS gf180mcu_fd_sc_mcu7t5v0__filltie
XTAP_1899 VDD VSS gf180mcu_fd_sc_mcu7t5v0__filltie
XFILLER_186_447 VDD VSS gf180mcu_fd_sc_mcu7t5v0__fillcap_8
XFILLER_139_352 VDD VSS gf180mcu_fd_sc_mcu7t5v0__fill_2
XFILLER_155_834 VDD VSS gf180mcu_fd_sc_mcu7t5v0__fill_2
XFILLER_167_694 VDD VSS gf180mcu_fd_sc_mcu7t5v0__fillcap_16
XFILLER_177_1024 VDD VSS gf180mcu_fd_sc_mcu7t5v0__fill_1
XFILLER_115_709 VDD VSS gf180mcu_fd_sc_mcu7t5v0__fill_1
XFILLER_181_141 VDD VSS gf180mcu_fd_sc_mcu7t5v0__fill_1
XFILLER_5_354 VDD VSS gf180mcu_fd_sc_mcu7t5v0__fill_1
XFILLER_170_815 VDD VSS gf180mcu_fd_sc_mcu7t5v0__fill_1
Xclkbuf_1_0__f__1062_ clkbuf_0__1062_/Z _4297_/I0 VDD VSS gf180mcu_fd_sc_mcu7t5v0__clkbuf_16
XFILLER_68_306 VDD VSS gf180mcu_fd_sc_mcu7t5v0__fillcap_8
XFILLER_110_403 VDD VSS gf180mcu_fd_sc_mcu7t5v0__fillcap_8
XFILLER_110_436 VDD VSS gf180mcu_fd_sc_mcu7t5v0__fill_2
XFILLER_67_70 VDD VSS gf180mcu_fd_sc_mcu7t5v0__fill_1
XFILLER_64_534 VDD VSS gf180mcu_fd_sc_mcu7t5v0__fill_2
XFILLER_76_394 VDD VSS gf180mcu_fd_sc_mcu7t5v0__fill_1
XFILLER_36_247 VDD VSS gf180mcu_fd_sc_mcu7t5v0__fill_1
XFILLER_184_1028 VDD VSS gf180mcu_fd_sc_mcu7t5v0__fill_1
X_4960_ _4960_/A1 _5055_/A2 _5270_/A1 _4761_/I _4960_/Z VDD VSS gf180mcu_fd_sc_mcu7t5v0__or4_4
XFILLER_17_472 VDD VSS gf180mcu_fd_sc_mcu7t5v0__fill_2
X_3911_ hold258/I _3525_/Z _3913_/B1 VDD VSS gf180mcu_fd_sc_mcu7t5v0__nor2_2
XFILLER_60_740 VDD VSS gf180mcu_fd_sc_mcu7t5v0__fillcap_4
X_4891_ _5315_/A2 _5399_/A1 _5380_/B2 _5260_/A1 _4891_/Z VDD VSS gf180mcu_fd_sc_mcu7t5v0__or4_4
XFILLER_189_263 VDD VSS gf180mcu_fd_sc_mcu7t5v0__fill_1
X_6630_ _7162_/RN _6652_/A2 _6630_/Z VDD VSS gf180mcu_fd_sc_mcu7t5v0__and2_4
XFILLER_177_425 VDD VSS gf180mcu_fd_sc_mcu7t5v0__fill_1
X_3842_ _3519_/Z _4185_/A2 _3950_/B1 VDD VSS gf180mcu_fd_sc_mcu7t5v0__nor2_4
XFILLER_177_436 VDD VSS gf180mcu_fd_sc_mcu7t5v0__fillcap_4
XFILLER_34_1031 VDD VSS gf180mcu_fd_sc_mcu7t5v0__fillcap_8
XFILLER_80_2 VDD VSS gf180mcu_fd_sc_mcu7t5v0__fill_1
Xnet1202_461 _4073__37/I _6704_/CLK VDD VSS gf180mcu_fd_sc_mcu7t5v0__clkinv_1
XFILLER_165_609 VDD VSS gf180mcu_fd_sc_mcu7t5v0__fillcap_8
XFILLER_177_469 VDD VSS gf180mcu_fd_sc_mcu7t5v0__fill_2
Xnet1202_472 net852_131/I _6693_/CLK VDD VSS gf180mcu_fd_sc_mcu7t5v0__clkinv_1
X_6561_ _6561_/A1 _7261_/Q _6833_/D _6561_/B2 _6562_/I VDD VSS gf180mcu_fd_sc_mcu7t5v0__aoi22_4
X_3773_ _3773_/A1 _3773_/A2 _3773_/A3 _3773_/A4 _3773_/Z VDD VSS gf180mcu_fd_sc_mcu7t5v0__and4_4
XFILLER_158_661 VDD VSS gf180mcu_fd_sc_mcu7t5v0__fillcap_4
Xnet1202_483 net1202_483/I _6682_/CLK VDD VSS gf180mcu_fd_sc_mcu7t5v0__clkinv_1
XFILLER_121_1012 VDD VSS gf180mcu_fd_sc_mcu7t5v0__fillcap_8
XFILLER_164_108 VDD VSS gf180mcu_fd_sc_mcu7t5v0__fillcap_8
Xnet1202_494 net1202_494/I _6671_/CLK VDD VSS gf180mcu_fd_sc_mcu7t5v0__clkinv_1
X_5512_ _5796_/I0 hold561/Z _5512_/S _5512_/Z VDD VSS gf180mcu_fd_sc_mcu7t5v0__mux2_2
XFILLER_157_160 VDD VSS gf180mcu_fd_sc_mcu7t5v0__fillcap_4
X_6492_ _6492_/A1 _6492_/A2 _6492_/A3 _6492_/A4 _6492_/Z VDD VSS gf180mcu_fd_sc_mcu7t5v0__and4_4
XFILLER_121_1056 VDD VSS gf180mcu_fd_sc_mcu7t5v0__fillcap_8
XFILLER_121_1067 VDD VSS gf180mcu_fd_sc_mcu7t5v0__fillcap_8
XFILLER_173_653 VDD VSS gf180mcu_fd_sc_mcu7t5v0__fill_1
X_5443_ _5443_/A1 _5245_/Z _5444_/A4 VDD VSS gf180mcu_fd_sc_mcu7t5v0__nor2_2
XFILLER_146_889 VDD VSS gf180mcu_fd_sc_mcu7t5v0__fillcap_4
XFILLER_161_815 VDD VSS gf180mcu_fd_sc_mcu7t5v0__fill_2
X_5374_ _5374_/A1 _5374_/A2 _5374_/A3 _5374_/A4 _5374_/Z VDD VSS gf180mcu_fd_sc_mcu7t5v0__or4_4
X_7113_ _7113_/D _7185_/RN _7113_/CLK _7113_/Q VDD VSS gf180mcu_fd_sc_mcu7t5v0__dffrnq_4
X_4325_ _6613_/I1 hold747/Z _4325_/S _4325_/Z VDD VSS gf180mcu_fd_sc_mcu7t5v0__mux2_2
XFILLER_86_114 VDD VSS gf180mcu_fd_sc_mcu7t5v0__fill_1
X_7044_ _7044_/D _7090_/RN _7044_/CLK _7044_/Q VDD VSS gf180mcu_fd_sc_mcu7t5v0__dffsnq_2
XFILLER_101_425 VDD VSS gf180mcu_fd_sc_mcu7t5v0__fill_1
X_4256_ _5860_/I0 hold128/Z _4261_/S _4256_/Z VDD VSS gf180mcu_fd_sc_mcu7t5v0__mux2_2
XFILLER_101_469 VDD VSS gf180mcu_fd_sc_mcu7t5v0__fill_1
X_4187_ _4343_/I0 hold509/Z _4187_/S _4187_/Z VDD VSS gf180mcu_fd_sc_mcu7t5v0__mux2_2
XFILLER_67_394 VDD VSS gf180mcu_fd_sc_mcu7t5v0__fill_2
XFILLER_83_854 VDD VSS gf180mcu_fd_sc_mcu7t5v0__fillcap_8
XFILLER_55_567 VDD VSS gf180mcu_fd_sc_mcu7t5v0__fill_1
XTAP_1107 VDD VSS gf180mcu_fd_sc_mcu7t5v0__filltie
XTAP_1118 VDD VSS gf180mcu_fd_sc_mcu7t5v0__filltie
XTAP_1129 VDD VSS gf180mcu_fd_sc_mcu7t5v0__filltie
XFILLER_35_280 VDD VSS gf180mcu_fd_sc_mcu7t5v0__fillcap_4
XFILLER_179_28 VDD VSS gf180mcu_fd_sc_mcu7t5v0__fill_2
XFILLER_50_250 VDD VSS gf180mcu_fd_sc_mcu7t5v0__fill_2
X_6828_ _6828_/D _7261_/RN _7279_/CLK _6828_/Q VDD VSS gf180mcu_fd_sc_mcu7t5v0__dffrnq_2
XFILLER_11_637 VDD VSS gf180mcu_fd_sc_mcu7t5v0__fill_2
XFILLER_184_907 VDD VSS gf180mcu_fd_sc_mcu7t5v0__fillcap_4
X_6759_ _6759_/D _7255_/RN _6759_/CLK _6759_/Q VDD VSS gf180mcu_fd_sc_mcu7t5v0__dffrnq_1
XFILLER_12_10 VDD VSS gf180mcu_fd_sc_mcu7t5v0__fill_2
XFILLER_183_428 VDD VSS gf180mcu_fd_sc_mcu7t5v0__fillcap_8
XFILLER_136_333 VDD VSS gf180mcu_fd_sc_mcu7t5v0__fill_2
XFILLER_152_815 VDD VSS gf180mcu_fd_sc_mcu7t5v0__fill_1
XFILLER_163_141 VDD VSS gf180mcu_fd_sc_mcu7t5v0__fill_1
XFILLER_163_152 VDD VSS gf180mcu_fd_sc_mcu7t5v0__fillcap_4
XFILLER_2_302 VDD VSS gf180mcu_fd_sc_mcu7t5v0__fill_1
Xhold170 _6954_/Q hold170/Z VDD VSS gf180mcu_fd_sc_mcu7t5v0__dlyb_4
XFILLER_151_369 VDD VSS gf180mcu_fd_sc_mcu7t5v0__fill_2
Xhold181 _6747_/Q hold181/Z VDD VSS gf180mcu_fd_sc_mcu7t5v0__dlyb_4
XFILLER_104_241 VDD VSS gf180mcu_fd_sc_mcu7t5v0__fillcap_4
XFILLER_132_550 VDD VSS gf180mcu_fd_sc_mcu7t5v0__fill_1
Xhold192 _5533_/Z _6903_/D VDD VSS gf180mcu_fd_sc_mcu7t5v0__dlyb_4
XFILLER_120_701 VDD VSS gf180mcu_fd_sc_mcu7t5v0__fillcap_4
XFILLER_78_626 VDD VSS gf180mcu_fd_sc_mcu7t5v0__fill_1
XFILLER_144_42 VDD VSS gf180mcu_fd_sc_mcu7t5v0__fill_2
XFILLER_77_125 VDD VSS gf180mcu_fd_sc_mcu7t5v0__fill_1
Xfanout650 fanout656/Z _7162_/RN VDD VSS gf180mcu_fd_sc_mcu7t5v0__clkbuf_4
Xfanout661 _7171_/RN _7146_/RN VDD VSS gf180mcu_fd_sc_mcu7t5v0__clkbuf_2
XFILLER_59_851 VDD VSS gf180mcu_fd_sc_mcu7t5v0__fill_1
Xfanout672 fanout685/Z _7171_/RN VDD VSS gf180mcu_fd_sc_mcu7t5v0__clkbuf_2
Xfanout683 _7019_/RN _7027_/RN VDD VSS gf180mcu_fd_sc_mcu7t5v0__clkbuf_2
XFILLER_93_618 VDD VSS gf180mcu_fd_sc_mcu7t5v0__fillcap_16
XFILLER_74_810 VDD VSS gf180mcu_fd_sc_mcu7t5v0__fill_1
Xfanout694 _7173_/RN _7205_/RN VDD VSS gf180mcu_fd_sc_mcu7t5v0__clkbuf_2
XTAP_3010 VDD VSS gf180mcu_fd_sc_mcu7t5v0__filltie
XFILLER_37_51 VDD VSS gf180mcu_fd_sc_mcu7t5v0__fill_2
XFILLER_46_534 VDD VSS gf180mcu_fd_sc_mcu7t5v0__fillcap_16
XTAP_3021 VDD VSS gf180mcu_fd_sc_mcu7t5v0__filltie
XTAP_3032 VDD VSS gf180mcu_fd_sc_mcu7t5v0__filltie
XFILLER_37_73 VDD VSS gf180mcu_fd_sc_mcu7t5v0__fillcap_4
XTAP_3043 VDD VSS gf180mcu_fd_sc_mcu7t5v0__filltie
XFILLER_160_52 VDD VSS gf180mcu_fd_sc_mcu7t5v0__fill_2
XTAP_3054 VDD VSS gf180mcu_fd_sc_mcu7t5v0__filltie
XFILLER_73_353 VDD VSS gf180mcu_fd_sc_mcu7t5v0__fill_2
XTAP_2320 VDD VSS gf180mcu_fd_sc_mcu7t5v0__filltie
XTAP_3065 VDD VSS gf180mcu_fd_sc_mcu7t5v0__filltie
XTAP_2331 VDD VSS gf180mcu_fd_sc_mcu7t5v0__filltie
XTAP_3076 VDD VSS gf180mcu_fd_sc_mcu7t5v0__filltie
XFILLER_33_217 VDD VSS gf180mcu_fd_sc_mcu7t5v0__fill_1
XTAP_2342 VDD VSS gf180mcu_fd_sc_mcu7t5v0__filltie
XTAP_3087 VDD VSS gf180mcu_fd_sc_mcu7t5v0__filltie
XTAP_2353 VDD VSS gf180mcu_fd_sc_mcu7t5v0__filltie
XTAP_3098 VDD VSS gf180mcu_fd_sc_mcu7t5v0__filltie
XTAP_2364 VDD VSS gf180mcu_fd_sc_mcu7t5v0__filltie
XTAP_1630 VDD VSS gf180mcu_fd_sc_mcu7t5v0__filltie
XFILLER_96_1080 VDD VSS gf180mcu_fd_sc_mcu7t5v0__fill_1
XTAP_2375 VDD VSS gf180mcu_fd_sc_mcu7t5v0__filltie
XTAP_1641 VDD VSS gf180mcu_fd_sc_mcu7t5v0__filltie
XTAP_2386 VDD VSS gf180mcu_fd_sc_mcu7t5v0__filltie
XFILLER_57_1064 VDD VSS gf180mcu_fd_sc_mcu7t5v0__fill_1
XTAP_1652 VDD VSS gf180mcu_fd_sc_mcu7t5v0__filltie
XTAP_2397 VDD VSS gf180mcu_fd_sc_mcu7t5v0__filltie
XFILLER_187_712 VDD VSS gf180mcu_fd_sc_mcu7t5v0__fill_1
XTAP_1663 VDD VSS gf180mcu_fd_sc_mcu7t5v0__filltie
XFILLER_57_1075 VDD VSS gf180mcu_fd_sc_mcu7t5v0__fillcap_4
XTAP_1674 VDD VSS gf180mcu_fd_sc_mcu7t5v0__filltie
XTAP_1685 VDD VSS gf180mcu_fd_sc_mcu7t5v0__filltie
XFILLER_159_436 VDD VSS gf180mcu_fd_sc_mcu7t5v0__fillcap_4
XTAP_1696 VDD VSS gf180mcu_fd_sc_mcu7t5v0__filltie
XFILLER_186_222 VDD VSS gf180mcu_fd_sc_mcu7t5v0__fillcap_16
XFILLER_41_283 VDD VSS gf180mcu_fd_sc_mcu7t5v0__fill_1
XFILLER_175_918 VDD VSS gf180mcu_fd_sc_mcu7t5v0__fillcap_4
XFILLER_169_94 VDD VSS gf180mcu_fd_sc_mcu7t5v0__fillcap_8
XFILLER_186_266 VDD VSS gf180mcu_fd_sc_mcu7t5v0__fillcap_8
XFILLER_146_108 VDD VSS gf180mcu_fd_sc_mcu7t5v0__fill_1
XFILLER_128_845 VDD VSS gf180mcu_fd_sc_mcu7t5v0__fill_2
XFILLER_128_889 VDD VSS gf180mcu_fd_sc_mcu7t5v0__fillcap_8
XFILLER_154_163 VDD VSS gf180mcu_fd_sc_mcu7t5v0__fillcap_8
XFILLER_111_701 VDD VSS gf180mcu_fd_sc_mcu7t5v0__fillcap_8
XFILLER_111_712 VDD VSS gf180mcu_fd_sc_mcu7t5v0__fillcap_32
X_4110_ _5798_/I0 hold775/Z _4118_/S _4110_/Z VDD VSS gf180mcu_fd_sc_mcu7t5v0__mux2_2
XFILLER_110_211 VDD VSS gf180mcu_fd_sc_mcu7t5v0__fillcap_8
X_5090_ _5090_/A1 _5090_/A2 _5400_/A1 VDD VSS gf180mcu_fd_sc_mcu7t5v0__nor2_2
Xclkbuf_4_3_0__1359_ clkbuf_0__1359_/Z _4073__49/I VDD VSS gf180mcu_fd_sc_mcu7t5v0__clkbuf_8
X_4041_ _3425_/S _7283_/Q _4041_/A3 _4041_/B1 _3409_/Z _6733_/D VDD VSS gf180mcu_fd_sc_mcu7t5v0__oai32_4
XFILLER_49_350 VDD VSS gf180mcu_fd_sc_mcu7t5v0__fillcap_4
XFILLER_110_266 VDD VSS gf180mcu_fd_sc_mcu7t5v0__fill_2
XFILLER_65_854 VDD VSS gf180mcu_fd_sc_mcu7t5v0__fillcap_8
XFILLER_37_567 VDD VSS gf180mcu_fd_sc_mcu7t5v0__fill_1
XFILLER_65_876 VDD VSS gf180mcu_fd_sc_mcu7t5v0__fill_2
XFILLER_65_898 VDD VSS gf180mcu_fd_sc_mcu7t5v0__fill_2
XFILLER_92_673 VDD VSS gf180mcu_fd_sc_mcu7t5v0__fill_1
X_5992_ _5992_/A1 _5991_/Z _5995_/C VDD VSS gf180mcu_fd_sc_mcu7t5v0__nor2_2
XFILLER_18_770 VDD VSS gf180mcu_fd_sc_mcu7t5v0__fill_2
XFILLER_52_526 VDD VSS gf180mcu_fd_sc_mcu7t5v0__fillcap_4
XFILLER_24_239 VDD VSS gf180mcu_fd_sc_mcu7t5v0__fillcap_8
X_4943_ _4759_/Z _4903_/Z _5330_/B2 VDD VSS gf180mcu_fd_sc_mcu7t5v0__nor2_4