* NGSPICE file created from housekeeping.ext - technology: gf180mcuC

* Black-box entry subcircuit for gf180mcu_fd_sc_mcu7t5v0__fillcap_16 abstract view
.subckt gf180mcu_fd_sc_mcu7t5v0__fillcap_16 VDD VSS
.ends

* Black-box entry subcircuit for gf180mcu_fd_sc_mcu7t5v0__fill_1 abstract view
.subckt gf180mcu_fd_sc_mcu7t5v0__fill_1 VDD VSS
.ends

* Black-box entry subcircuit for gf180mcu_fd_sc_mcu7t5v0__fillcap_4 abstract view
.subckt gf180mcu_fd_sc_mcu7t5v0__fillcap_4 VDD VSS
.ends

* Black-box entry subcircuit for gf180mcu_fd_sc_mcu7t5v0__fill_2 abstract view
.subckt gf180mcu_fd_sc_mcu7t5v0__fill_2 VDD VSS
.ends

* Black-box entry subcircuit for gf180mcu_fd_sc_mcu7t5v0__dffnrnq_1 abstract view
.subckt gf180mcu_fd_sc_mcu7t5v0__dffnrnq_1 D RN CLKN Q VDD VSS
.ends

* Black-box entry subcircuit for gf180mcu_fd_sc_mcu7t5v0__dffq_1 abstract view
.subckt gf180mcu_fd_sc_mcu7t5v0__dffq_1 D CLK Q VDD VSS
.ends

* Black-box entry subcircuit for gf180mcu_fd_sc_mcu7t5v0__nand3_1 abstract view
.subckt gf180mcu_fd_sc_mcu7t5v0__nand3_1 A1 A2 A3 ZN VDD VSS
.ends

* Black-box entry subcircuit for gf180mcu_fd_sc_mcu7t5v0__dffrnq_2 abstract view
.subckt gf180mcu_fd_sc_mcu7t5v0__dffrnq_2 D RN CLK Q VDD VSS
.ends

* Black-box entry subcircuit for gf180mcu_fd_sc_mcu7t5v0__nand4_4 abstract view
.subckt gf180mcu_fd_sc_mcu7t5v0__nand4_4 A1 A2 A3 A4 ZN VDD VSS
.ends

* Black-box entry subcircuit for gf180mcu_fd_sc_mcu7t5v0__fillcap_8 abstract view
.subckt gf180mcu_fd_sc_mcu7t5v0__fillcap_8 VDD VSS
.ends

* Black-box entry subcircuit for gf180mcu_fd_sc_mcu7t5v0__mux2_2 abstract view
.subckt gf180mcu_fd_sc_mcu7t5v0__mux2_2 I0 I1 S Z VDD VSS
.ends

* Black-box entry subcircuit for gf180mcu_fd_sc_mcu7t5v0__and4_1 abstract view
.subckt gf180mcu_fd_sc_mcu7t5v0__and4_1 A1 A2 A3 A4 Z VDD VSS
.ends

* Black-box entry subcircuit for gf180mcu_fd_sc_mcu7t5v0__dffrnq_1 abstract view
.subckt gf180mcu_fd_sc_mcu7t5v0__dffrnq_1 D RN CLK Q VDD VSS
.ends

* Black-box entry subcircuit for gf180mcu_fd_sc_mcu7t5v0__dlyd_4 abstract view
.subckt gf180mcu_fd_sc_mcu7t5v0__dlyd_4 I Z VDD VSS
.ends

* Black-box entry subcircuit for gf180mcu_fd_sc_mcu7t5v0__filltie abstract view
.subckt gf180mcu_fd_sc_mcu7t5v0__filltie VDD VSS
.ends

* Black-box entry subcircuit for gf180mcu_fd_sc_mcu7t5v0__oai211_2 abstract view
.subckt gf180mcu_fd_sc_mcu7t5v0__oai211_2 A1 A2 B C ZN VDD VSS
.ends

* Black-box entry subcircuit for gf180mcu_fd_sc_mcu7t5v0__nand4_2 abstract view
.subckt gf180mcu_fd_sc_mcu7t5v0__nand4_2 A1 A2 A3 A4 ZN VDD VSS
.ends

* Black-box entry subcircuit for gf180mcu_fd_sc_mcu7t5v0__nand4_1 abstract view
.subckt gf180mcu_fd_sc_mcu7t5v0__nand4_1 A1 A2 A3 A4 ZN VDD VSS
.ends

* Black-box entry subcircuit for gf180mcu_fd_sc_mcu7t5v0__aoi21_1 abstract view
.subckt gf180mcu_fd_sc_mcu7t5v0__aoi21_1 A1 A2 B ZN VDD VSS
.ends

* Black-box entry subcircuit for gf180mcu_fd_sc_mcu7t5v0__aoi222_1 abstract view
.subckt gf180mcu_fd_sc_mcu7t5v0__aoi222_1 A1 A2 B1 B2 C1 C2 ZN VDD VSS
.ends

* Black-box entry subcircuit for gf180mcu_fd_sc_mcu7t5v0__nor4_1 abstract view
.subckt gf180mcu_fd_sc_mcu7t5v0__nor4_1 A1 A2 A3 A4 ZN VDD VSS
.ends

* Black-box entry subcircuit for gf180mcu_fd_sc_mcu7t5v0__aoi221_2 abstract view
.subckt gf180mcu_fd_sc_mcu7t5v0__aoi221_2 A1 A2 B1 B2 C ZN VDD VSS
.ends

* Black-box entry subcircuit for gf180mcu_fd_sc_mcu7t5v0__dffsnq_1 abstract view
.subckt gf180mcu_fd_sc_mcu7t5v0__dffsnq_1 D SETN CLK Q VDD VSS
.ends

* Black-box entry subcircuit for gf180mcu_fd_sc_mcu7t5v0__clkinv_1 abstract view
.subckt gf180mcu_fd_sc_mcu7t5v0__clkinv_1 I ZN VDD VSS
.ends

* Black-box entry subcircuit for gf180mcu_fd_sc_mcu7t5v0__fillcap_32 abstract view
.subckt gf180mcu_fd_sc_mcu7t5v0__fillcap_32 VDD VSS
.ends

* Black-box entry subcircuit for gf180mcu_fd_sc_mcu7t5v0__nor2_1 abstract view
.subckt gf180mcu_fd_sc_mcu7t5v0__nor2_1 A1 A2 ZN VDD VSS
.ends

* Black-box entry subcircuit for gf180mcu_fd_sc_mcu7t5v0__nor2_2 abstract view
.subckt gf180mcu_fd_sc_mcu7t5v0__nor2_2 A1 A2 ZN VDD VSS
.ends

* Black-box entry subcircuit for gf180mcu_fd_sc_mcu7t5v0__nand2_1 abstract view
.subckt gf180mcu_fd_sc_mcu7t5v0__nand2_1 A1 A2 ZN VDD VSS
.ends

* Black-box entry subcircuit for gf180mcu_fd_sc_mcu7t5v0__oai32_1 abstract view
.subckt gf180mcu_fd_sc_mcu7t5v0__oai32_1 A1 A2 A3 B1 B2 ZN VDD VSS
.ends

* Black-box entry subcircuit for gf180mcu_fd_sc_mcu7t5v0__buf_4 abstract view
.subckt gf180mcu_fd_sc_mcu7t5v0__buf_4 I Z VDD VSS
.ends

* Black-box entry subcircuit for gf180mcu_fd_sc_mcu7t5v0__nor4_2 abstract view
.subckt gf180mcu_fd_sc_mcu7t5v0__nor4_2 A1 A2 A3 A4 ZN VDD VSS
.ends

* Black-box entry subcircuit for gf180mcu_fd_sc_mcu7t5v0__aoi22_1 abstract view
.subckt gf180mcu_fd_sc_mcu7t5v0__aoi22_1 A1 A2 B1 B2 ZN VDD VSS
.ends

* Black-box entry subcircuit for gf180mcu_fd_sc_mcu7t5v0__nor4_4 abstract view
.subckt gf180mcu_fd_sc_mcu7t5v0__nor4_4 A1 A2 A3 A4 ZN VDD VSS
.ends

* Black-box entry subcircuit for gf180mcu_fd_sc_mcu7t5v0__aoi21_4 abstract view
.subckt gf180mcu_fd_sc_mcu7t5v0__aoi21_4 A1 A2 B ZN VDD VSS
.ends

* Black-box entry subcircuit for gf180mcu_fd_sc_mcu7t5v0__oai21_1 abstract view
.subckt gf180mcu_fd_sc_mcu7t5v0__oai21_1 A1 A2 B ZN VDD VSS
.ends

* Black-box entry subcircuit for gf180mcu_fd_sc_mcu7t5v0__and2_1 abstract view
.subckt gf180mcu_fd_sc_mcu7t5v0__and2_1 A1 A2 Z VDD VSS
.ends

* Black-box entry subcircuit for gf180mcu_fd_sc_mcu7t5v0__nand2_4 abstract view
.subckt gf180mcu_fd_sc_mcu7t5v0__nand2_4 A1 A2 ZN VDD VSS
.ends

* Black-box entry subcircuit for gf180mcu_fd_sc_mcu7t5v0__aoi211_4 abstract view
.subckt gf180mcu_fd_sc_mcu7t5v0__aoi211_4 A1 A2 B C ZN VDD VSS
.ends

* Black-box entry subcircuit for gf180mcu_fd_sc_mcu7t5v0__aoi211_1 abstract view
.subckt gf180mcu_fd_sc_mcu7t5v0__aoi211_1 A1 A2 B C ZN VDD VSS
.ends

* Black-box entry subcircuit for gf180mcu_fd_sc_mcu7t5v0__oai211_1 abstract view
.subckt gf180mcu_fd_sc_mcu7t5v0__oai211_1 A1 A2 B C ZN VDD VSS
.ends

* Black-box entry subcircuit for gf180mcu_fd_sc_mcu7t5v0__clkbuf_16 abstract view
.subckt gf180mcu_fd_sc_mcu7t5v0__clkbuf_16 I Z VDD VSS
.ends

* Black-box entry subcircuit for gf180mcu_fd_sc_mcu7t5v0__clkbuf_1 abstract view
.subckt gf180mcu_fd_sc_mcu7t5v0__clkbuf_1 I Z VDD VSS
.ends

* Black-box entry subcircuit for gf180mcu_fd_sc_mcu7t5v0__and4_4 abstract view
.subckt gf180mcu_fd_sc_mcu7t5v0__and4_4 A1 A2 A3 A4 Z VDD VSS
.ends

* Black-box entry subcircuit for gf180mcu_fd_sc_mcu7t5v0__clkinv_16 abstract view
.subckt gf180mcu_fd_sc_mcu7t5v0__clkinv_16 I ZN VDD VSS
.ends

* Black-box entry subcircuit for gf180mcu_fd_sc_mcu7t5v0__aoi221_1 abstract view
.subckt gf180mcu_fd_sc_mcu7t5v0__aoi221_1 A1 A2 B1 B2 C ZN VDD VSS
.ends

* Black-box entry subcircuit for gf180mcu_fd_sc_mcu7t5v0__endcap abstract view
.subckt gf180mcu_fd_sc_mcu7t5v0__endcap VDD VSS
.ends

* Black-box entry subcircuit for gf180mcu_fd_sc_mcu7t5v0__aoi221_4 abstract view
.subckt gf180mcu_fd_sc_mcu7t5v0__aoi221_4 A1 A2 B1 B2 C ZN VDD VSS
.ends

* Black-box entry subcircuit for gf180mcu_fd_sc_mcu7t5v0__or2_4 abstract view
.subckt gf180mcu_fd_sc_mcu7t5v0__or2_4 A1 A2 Z VDD VSS
.ends

* Black-box entry subcircuit for gf180mcu_fd_sc_mcu7t5v0__dffsnq_4 abstract view
.subckt gf180mcu_fd_sc_mcu7t5v0__dffsnq_4 D SETN CLK Q VDD VSS
.ends

* Black-box entry subcircuit for gf180mcu_fd_sc_mcu7t5v0__buf_20 abstract view
.subckt gf180mcu_fd_sc_mcu7t5v0__buf_20 I Z VDD VSS
.ends

* Black-box entry subcircuit for gf180mcu_fd_sc_mcu7t5v0__dlyb_1 abstract view
.subckt gf180mcu_fd_sc_mcu7t5v0__dlyb_1 I Z VDD VSS
.ends

* Black-box entry subcircuit for gf180mcu_fd_sc_mcu7t5v0__and3_1 abstract view
.subckt gf180mcu_fd_sc_mcu7t5v0__and3_1 A1 A2 A3 Z VDD VSS
.ends

* Black-box entry subcircuit for gf180mcu_fd_sc_mcu7t5v0__or4_1 abstract view
.subckt gf180mcu_fd_sc_mcu7t5v0__or4_1 A1 A2 A3 A4 Z VDD VSS
.ends

* Black-box entry subcircuit for gf180mcu_fd_sc_mcu7t5v0__oai221_2 abstract view
.subckt gf180mcu_fd_sc_mcu7t5v0__oai221_2 A1 A2 B1 B2 C ZN VDD VSS
.ends

* Black-box entry subcircuit for gf180mcu_fd_sc_mcu7t5v0__nor3_4 abstract view
.subckt gf180mcu_fd_sc_mcu7t5v0__nor3_4 A1 A2 A3 ZN VDD VSS
.ends

* Black-box entry subcircuit for gf180mcu_fd_sc_mcu7t5v0__nand3_4 abstract view
.subckt gf180mcu_fd_sc_mcu7t5v0__nand3_4 A1 A2 A3 ZN VDD VSS
.ends

* Black-box entry subcircuit for gf180mcu_fd_sc_mcu7t5v0__aoi222_2 abstract view
.subckt gf180mcu_fd_sc_mcu7t5v0__aoi222_2 A1 A2 B1 B2 C1 C2 ZN VDD VSS
.ends

* Black-box entry subcircuit for gf180mcu_fd_sc_mcu7t5v0__clkbuf_8 abstract view
.subckt gf180mcu_fd_sc_mcu7t5v0__clkbuf_8 I Z VDD VSS
.ends

* Black-box entry subcircuit for gf180mcu_fd_sc_mcu7t5v0__oai211_4 abstract view
.subckt gf180mcu_fd_sc_mcu7t5v0__oai211_4 A1 A2 B C ZN VDD VSS
.ends

* Black-box entry subcircuit for gf180mcu_fd_sc_mcu7t5v0__clkinv_20 abstract view
.subckt gf180mcu_fd_sc_mcu7t5v0__clkinv_20 I ZN VDD VSS
.ends

* Black-box entry subcircuit for gf180mcu_fd_sc_mcu7t5v0__nor2_4 abstract view
.subckt gf180mcu_fd_sc_mcu7t5v0__nor2_4 A1 A2 ZN VDD VSS
.ends

* Black-box entry subcircuit for gf180mcu_fd_sc_mcu7t5v0__dffrnq_4 abstract view
.subckt gf180mcu_fd_sc_mcu7t5v0__dffrnq_4 D RN CLK Q VDD VSS
.ends

* Black-box entry subcircuit for gf180mcu_fd_sc_mcu7t5v0__oai31_1 abstract view
.subckt gf180mcu_fd_sc_mcu7t5v0__oai31_1 A1 A2 A3 B ZN VDD VSS
.ends

* Black-box entry subcircuit for gf180mcu_fd_sc_mcu7t5v0__oai21_4 abstract view
.subckt gf180mcu_fd_sc_mcu7t5v0__oai21_4 A1 A2 B ZN VDD VSS
.ends

* Black-box entry subcircuit for gf180mcu_fd_sc_mcu7t5v0__xor2_1 abstract view
.subckt gf180mcu_fd_sc_mcu7t5v0__xor2_1 A1 A2 Z VDD VSS
.ends

* Black-box entry subcircuit for gf180mcu_fd_sc_mcu7t5v0__nand2_2 abstract view
.subckt gf180mcu_fd_sc_mcu7t5v0__nand2_2 A1 A2 ZN VDD VSS
.ends

* Black-box entry subcircuit for gf180mcu_fd_sc_mcu7t5v0__buf_1 abstract view
.subckt gf180mcu_fd_sc_mcu7t5v0__buf_1 I Z VDD VSS
.ends

* Black-box entry subcircuit for gf180mcu_fd_sc_mcu7t5v0__clkbuf_2 abstract view
.subckt gf180mcu_fd_sc_mcu7t5v0__clkbuf_2 I Z VDD VSS
.ends

* Black-box entry subcircuit for gf180mcu_fd_sc_mcu7t5v0__dffnsnq_1 abstract view
.subckt gf180mcu_fd_sc_mcu7t5v0__dffnsnq_1 D SETN CLKN Q VDD VSS
.ends

* Black-box entry subcircuit for gf180mcu_fd_sc_mcu7t5v0__nor3_1 abstract view
.subckt gf180mcu_fd_sc_mcu7t5v0__nor3_1 A1 A2 A3 ZN VDD VSS
.ends

* Black-box entry subcircuit for gf180mcu_fd_sc_mcu7t5v0__aoi22_2 abstract view
.subckt gf180mcu_fd_sc_mcu7t5v0__aoi22_2 A1 A2 B1 B2 ZN VDD VSS
.ends

* Black-box entry subcircuit for gf180mcu_fd_sc_mcu7t5v0__inv_12 abstract view
.subckt gf180mcu_fd_sc_mcu7t5v0__inv_12 I ZN VDD VSS
.ends

* Black-box entry subcircuit for gf180mcu_fd_sc_mcu7t5v0__buf_16 abstract view
.subckt gf180mcu_fd_sc_mcu7t5v0__buf_16 I Z VDD VSS
.ends

* Black-box entry subcircuit for gf180mcu_fd_sc_mcu7t5v0__nand3_2 abstract view
.subckt gf180mcu_fd_sc_mcu7t5v0__nand3_2 A1 A2 A3 ZN VDD VSS
.ends

* Black-box entry subcircuit for gf180mcu_fd_sc_mcu7t5v0__dlyd_1 abstract view
.subckt gf180mcu_fd_sc_mcu7t5v0__dlyd_1 I Z VDD VSS
.ends

* Black-box entry subcircuit for gf180mcu_fd_sc_mcu7t5v0__oai22_1 abstract view
.subckt gf180mcu_fd_sc_mcu7t5v0__oai22_1 A1 A2 B1 B2 ZN VDD VSS
.ends

* Black-box entry subcircuit for gf180mcu_fd_sc_mcu7t5v0__or3_2 abstract view
.subckt gf180mcu_fd_sc_mcu7t5v0__or3_2 A1 A2 A3 Z VDD VSS
.ends

* Black-box entry subcircuit for gf180mcu_fd_sc_mcu7t5v0__oai31_2 abstract view
.subckt gf180mcu_fd_sc_mcu7t5v0__oai31_2 A1 A2 A3 B ZN VDD VSS
.ends

* Black-box entry subcircuit for gf180mcu_fd_sc_mcu7t5v0__mux2_4 abstract view
.subckt gf180mcu_fd_sc_mcu7t5v0__mux2_4 I0 I1 S Z VDD VSS
.ends

* Black-box entry subcircuit for gf180mcu_fd_sc_mcu7t5v0__inv_16 abstract view
.subckt gf180mcu_fd_sc_mcu7t5v0__inv_16 I ZN VDD VSS
.ends

* Black-box entry subcircuit for gf180mcu_fd_sc_mcu7t5v0__oai221_1 abstract view
.subckt gf180mcu_fd_sc_mcu7t5v0__oai221_1 A1 A2 B1 B2 C ZN VDD VSS
.ends

* Black-box entry subcircuit for gf180mcu_fd_sc_mcu7t5v0__and2_2 abstract view
.subckt gf180mcu_fd_sc_mcu7t5v0__and2_2 A1 A2 Z VDD VSS
.ends

* Black-box entry subcircuit for gf180mcu_fd_sc_mcu7t5v0__and4_2 abstract view
.subckt gf180mcu_fd_sc_mcu7t5v0__and4_2 A1 A2 A3 A4 Z VDD VSS
.ends

* Black-box entry subcircuit for gf180mcu_fd_sc_mcu7t5v0__xnor2_1 abstract view
.subckt gf180mcu_fd_sc_mcu7t5v0__xnor2_1 A1 A2 ZN VDD VSS
.ends

* Black-box entry subcircuit for gf180mcu_fd_sc_mcu7t5v0__aoi211_2 abstract view
.subckt gf180mcu_fd_sc_mcu7t5v0__aoi211_2 A1 A2 B C ZN VDD VSS
.ends

* Black-box entry subcircuit for gf180mcu_fd_sc_mcu7t5v0__or2_1 abstract view
.subckt gf180mcu_fd_sc_mcu7t5v0__or2_1 A1 A2 Z VDD VSS
.ends

* Black-box entry subcircuit for gf180mcu_fd_sc_mcu7t5v0__dffsnq_2 abstract view
.subckt gf180mcu_fd_sc_mcu7t5v0__dffsnq_2 D SETN CLK Q VDD VSS
.ends

* Black-box entry subcircuit for gf180mcu_fd_sc_mcu7t5v0__nor3_2 abstract view
.subckt gf180mcu_fd_sc_mcu7t5v0__nor3_2 A1 A2 A3 ZN VDD VSS
.ends

* Black-box entry subcircuit for gf180mcu_fd_sc_mcu7t5v0__inv_20 abstract view
.subckt gf180mcu_fd_sc_mcu7t5v0__inv_20 I ZN VDD VSS
.ends

* Black-box entry subcircuit for gf180mcu_fd_sc_mcu7t5v0__tieh abstract view
.subckt gf180mcu_fd_sc_mcu7t5v0__tieh Z VDD VSS
.ends

* Black-box entry subcircuit for gf180mcu_fd_sc_mcu7t5v0__clkinv_4 abstract view
.subckt gf180mcu_fd_sc_mcu7t5v0__clkinv_4 I ZN VDD VSS
.ends

* Black-box entry subcircuit for gf180mcu_fd_sc_mcu7t5v0__oai32_4 abstract view
.subckt gf180mcu_fd_sc_mcu7t5v0__oai32_4 A1 A2 A3 B1 B2 ZN VDD VSS
.ends

* Black-box entry subcircuit for gf180mcu_fd_sc_mcu7t5v0__buf_12 abstract view
.subckt gf180mcu_fd_sc_mcu7t5v0__buf_12 I Z VDD VSS
.ends

* Black-box entry subcircuit for gf180mcu_fd_sc_mcu7t5v0__inv_1 abstract view
.subckt gf180mcu_fd_sc_mcu7t5v0__inv_1 I ZN VDD VSS
.ends

* Black-box entry subcircuit for gf180mcu_fd_sc_mcu7t5v0__fillcap_64 abstract view
.subckt gf180mcu_fd_sc_mcu7t5v0__fillcap_64 VDD VSS
.ends

* Black-box entry subcircuit for gf180mcu_fd_sc_mcu7t5v0__and2_4 abstract view
.subckt gf180mcu_fd_sc_mcu7t5v0__and2_4 A1 A2 Z VDD VSS
.ends

* Black-box entry subcircuit for gf180mcu_fd_sc_mcu7t5v0__buf_8 abstract view
.subckt gf180mcu_fd_sc_mcu7t5v0__buf_8 I Z VDD VSS
.ends

* Black-box entry subcircuit for gf180mcu_fd_sc_mcu7t5v0__or3_1 abstract view
.subckt gf180mcu_fd_sc_mcu7t5v0__or3_1 A1 A2 A3 Z VDD VSS
.ends

* Black-box entry subcircuit for gf180mcu_fd_sc_mcu7t5v0__clkinv_2 abstract view
.subckt gf180mcu_fd_sc_mcu7t5v0__clkinv_2 I ZN VDD VSS
.ends

* Black-box entry subcircuit for gf180mcu_fd_sc_mcu7t5v0__oai21_2 abstract view
.subckt gf180mcu_fd_sc_mcu7t5v0__oai21_2 A1 A2 B ZN VDD VSS
.ends

* Black-box entry subcircuit for gf180mcu_fd_sc_mcu7t5v0__aoi21_2 abstract view
.subckt gf180mcu_fd_sc_mcu7t5v0__aoi21_2 A1 A2 B ZN VDD VSS
.ends

* Black-box entry subcircuit for gf180mcu_fd_sc_mcu7t5v0__and3_2 abstract view
.subckt gf180mcu_fd_sc_mcu7t5v0__and3_2 A1 A2 A3 Z VDD VSS
.ends

* Black-box entry subcircuit for gf180mcu_fd_sc_mcu7t5v0__and3_4 abstract view
.subckt gf180mcu_fd_sc_mcu7t5v0__and3_4 A1 A2 A3 Z VDD VSS
.ends

* Black-box entry subcircuit for gf180mcu_fd_sc_mcu7t5v0__or4_2 abstract view
.subckt gf180mcu_fd_sc_mcu7t5v0__or4_2 A1 A2 A3 A4 Z VDD VSS
.ends

* Black-box entry subcircuit for gf180mcu_fd_sc_mcu7t5v0__oai221_4 abstract view
.subckt gf180mcu_fd_sc_mcu7t5v0__oai221_4 A1 A2 B1 B2 C ZN VDD VSS
.ends

* Black-box entry subcircuit for gf180mcu_fd_sc_mcu7t5v0__dlyc_1 abstract view
.subckt gf180mcu_fd_sc_mcu7t5v0__dlyc_1 I Z VDD VSS
.ends

* Black-box entry subcircuit for gf180mcu_fd_sc_mcu7t5v0__or4_4 abstract view
.subckt gf180mcu_fd_sc_mcu7t5v0__or4_4 A1 A2 A3 A4 Z VDD VSS
.ends

* Black-box entry subcircuit for gf180mcu_fd_sc_mcu7t5v0__or2_2 abstract view
.subckt gf180mcu_fd_sc_mcu7t5v0__or2_2 A1 A2 Z VDD VSS
.ends

* Black-box entry subcircuit for gf180mcu_fd_sc_mcu7t5v0__aoi22_4 abstract view
.subckt gf180mcu_fd_sc_mcu7t5v0__aoi22_4 A1 A2 B1 B2 ZN VDD VSS
.ends

* Black-box entry subcircuit for gf180mcu_fd_sc_mcu7t5v0__oai32_2 abstract view
.subckt gf180mcu_fd_sc_mcu7t5v0__oai32_2 A1 A2 A3 B1 B2 ZN VDD VSS
.ends

* Black-box entry subcircuit for gf180mcu_fd_sc_mcu7t5v0__inv_8 abstract view
.subckt gf180mcu_fd_sc_mcu7t5v0__inv_8 I ZN VDD VSS
.ends

* Black-box entry subcircuit for gf180mcu_fd_sc_mcu7t5v0__clkinv_8 abstract view
.subckt gf180mcu_fd_sc_mcu7t5v0__clkinv_8 I ZN VDD VSS
.ends

* Black-box entry subcircuit for gf180mcu_fd_sc_mcu7t5v0__clkbuf_4 abstract view
.subckt gf180mcu_fd_sc_mcu7t5v0__clkbuf_4 I Z VDD VSS
.ends

* Black-box entry subcircuit for gf180mcu_fd_sc_mcu7t5v0__buf_2 abstract view
.subckt gf180mcu_fd_sc_mcu7t5v0__buf_2 I Z VDD VSS
.ends

* Black-box entry subcircuit for gf180mcu_fd_sc_mcu7t5v0__inv_4 abstract view
.subckt gf180mcu_fd_sc_mcu7t5v0__inv_4 I ZN VDD VSS
.ends

* Black-box entry subcircuit for gf180mcu_fd_sc_mcu7t5v0__clkinv_3 abstract view
.subckt gf180mcu_fd_sc_mcu7t5v0__clkinv_3 I ZN VDD VSS
.ends

* Black-box entry subcircuit for gf180mcu_fd_sc_mcu7t5v0__oai22_2 abstract view
.subckt gf180mcu_fd_sc_mcu7t5v0__oai22_2 A1 A2 B1 B2 ZN VDD VSS
.ends

* Black-box entry subcircuit for gf180mcu_fd_sc_mcu7t5v0__clkinv_12 abstract view
.subckt gf180mcu_fd_sc_mcu7t5v0__clkinv_12 I ZN VDD VSS
.ends

* Black-box entry subcircuit for gf180mcu_fd_sc_mcu7t5v0__inv_2 abstract view
.subckt gf180mcu_fd_sc_mcu7t5v0__inv_2 I ZN VDD VSS
.ends

.subckt housekeeping VDD VSS debug_in debug_mode debug_oeb debug_out irq[0] irq[1]
+ irq[2] mask_rev_in[0] mask_rev_in[10] mask_rev_in[11] mask_rev_in[12] mask_rev_in[13]
+ mask_rev_in[14] mask_rev_in[15] mask_rev_in[16] mask_rev_in[17] mask_rev_in[18]
+ mask_rev_in[19] mask_rev_in[1] mask_rev_in[20] mask_rev_in[21] mask_rev_in[22] mask_rev_in[23]
+ mask_rev_in[24] mask_rev_in[25] mask_rev_in[26] mask_rev_in[27] mask_rev_in[28]
+ mask_rev_in[29] mask_rev_in[2] mask_rev_in[30] mask_rev_in[31] mask_rev_in[3] mask_rev_in[4]
+ mask_rev_in[5] mask_rev_in[6] mask_rev_in[7] mask_rev_in[8] mask_rev_in[9] mgmt_gpio_in[0]
+ mgmt_gpio_in[10] mgmt_gpio_in[11] mgmt_gpio_in[12] mgmt_gpio_in[13] mgmt_gpio_in[14]
+ mgmt_gpio_in[15] mgmt_gpio_in[16] mgmt_gpio_in[17] mgmt_gpio_in[18] mgmt_gpio_in[19]
+ mgmt_gpio_in[1] mgmt_gpio_in[20] mgmt_gpio_in[21] mgmt_gpio_in[22] mgmt_gpio_in[23]
+ mgmt_gpio_in[24] mgmt_gpio_in[25] mgmt_gpio_in[26] mgmt_gpio_in[27] mgmt_gpio_in[28]
+ mgmt_gpio_in[29] mgmt_gpio_in[2] mgmt_gpio_in[30] mgmt_gpio_in[31] mgmt_gpio_in[32]
+ mgmt_gpio_in[33] mgmt_gpio_in[34] mgmt_gpio_in[35] mgmt_gpio_in[36] mgmt_gpio_in[37]
+ mgmt_gpio_in[3] mgmt_gpio_in[4] mgmt_gpio_in[5] mgmt_gpio_in[6] mgmt_gpio_in[7]
+ mgmt_gpio_in[8] mgmt_gpio_in[9] mgmt_gpio_oeb[0] mgmt_gpio_oeb[10] mgmt_gpio_oeb[11]
+ mgmt_gpio_oeb[12] mgmt_gpio_oeb[13] mgmt_gpio_oeb[14] mgmt_gpio_oeb[15] mgmt_gpio_oeb[16]
+ mgmt_gpio_oeb[17] mgmt_gpio_oeb[18] mgmt_gpio_oeb[19] mgmt_gpio_oeb[1] mgmt_gpio_oeb[20]
+ mgmt_gpio_oeb[21] mgmt_gpio_oeb[22] mgmt_gpio_oeb[23] mgmt_gpio_oeb[24] mgmt_gpio_oeb[25]
+ mgmt_gpio_oeb[26] mgmt_gpio_oeb[27] mgmt_gpio_oeb[28] mgmt_gpio_oeb[29] mgmt_gpio_oeb[2]
+ mgmt_gpio_oeb[30] mgmt_gpio_oeb[31] mgmt_gpio_oeb[32] mgmt_gpio_oeb[33] mgmt_gpio_oeb[34]
+ mgmt_gpio_oeb[35] mgmt_gpio_oeb[36] mgmt_gpio_oeb[37] mgmt_gpio_oeb[3] mgmt_gpio_oeb[4]
+ mgmt_gpio_oeb[5] mgmt_gpio_oeb[6] mgmt_gpio_oeb[7] mgmt_gpio_oeb[8] mgmt_gpio_oeb[9]
+ mgmt_gpio_out[0] mgmt_gpio_out[10] mgmt_gpio_out[11] mgmt_gpio_out[12] mgmt_gpio_out[13]
+ mgmt_gpio_out[14] mgmt_gpio_out[15] mgmt_gpio_out[16] mgmt_gpio_out[17] mgmt_gpio_out[18]
+ mgmt_gpio_out[19] mgmt_gpio_out[1] mgmt_gpio_out[20] mgmt_gpio_out[21] mgmt_gpio_out[22]
+ mgmt_gpio_out[23] mgmt_gpio_out[24] mgmt_gpio_out[25] mgmt_gpio_out[26] mgmt_gpio_out[27]
+ mgmt_gpio_out[28] mgmt_gpio_out[29] mgmt_gpio_out[2] mgmt_gpio_out[30] mgmt_gpio_out[31]
+ mgmt_gpio_out[32] mgmt_gpio_out[33] mgmt_gpio_out[34] mgmt_gpio_out[35] mgmt_gpio_out[36]
+ mgmt_gpio_out[37] mgmt_gpio_out[3] mgmt_gpio_out[4] mgmt_gpio_out[5] mgmt_gpio_out[6]
+ mgmt_gpio_out[7] mgmt_gpio_out[8] mgmt_gpio_out[9] pad_flash_clk pad_flash_clk_oe
+ pad_flash_csb pad_flash_csb_oe pad_flash_io0_di pad_flash_io0_do pad_flash_io0_ie
+ pad_flash_io0_oe pad_flash_io1_di pad_flash_io1_do pad_flash_io1_ie pad_flash_io1_oe
+ pll90_sel[0] pll90_sel[1] pll90_sel[2] pll_bypass pll_dco_ena pll_div[0] pll_div[1]
+ pll_div[2] pll_div[3] pll_div[4] pll_ena pll_sel[0] pll_sel[1] pll_sel[2] pll_trim[0]
+ pll_trim[10] pll_trim[11] pll_trim[12] pll_trim[13] pll_trim[14] pll_trim[15] pll_trim[16]
+ pll_trim[17] pll_trim[18] pll_trim[19] pll_trim[1] pll_trim[20] pll_trim[21] pll_trim[22]
+ pll_trim[23] pll_trim[24] pll_trim[25] pll_trim[2] pll_trim[3] pll_trim[4] pll_trim[5]
+ pll_trim[6] pll_trim[7] pll_trim[8] pll_trim[9] porb pwr_ctrl_out qspi_enabled reset
+ ser_rx ser_tx serial_clock serial_data_1 serial_data_2 serial_load serial_resetn
+ spi_csb spi_enabled spi_sck spi_sdi spi_sdo spi_sdoenb spimemio_flash_clk spimemio_flash_csb
+ spimemio_flash_io0_di spimemio_flash_io0_do spimemio_flash_io0_oeb spimemio_flash_io1_di
+ spimemio_flash_io1_do spimemio_flash_io1_oeb spimemio_flash_io2_di spimemio_flash_io2_do
+ spimemio_flash_io2_oeb spimemio_flash_io3_di spimemio_flash_io3_do spimemio_flash_io3_oeb
+ trap uart_enabled user_clock wb_ack_o wb_adr_i[0] wb_adr_i[10] wb_adr_i[11] wb_adr_i[12]
+ wb_adr_i[13] wb_adr_i[14] wb_adr_i[15] wb_adr_i[16] wb_adr_i[17] wb_adr_i[18] wb_adr_i[19]
+ wb_adr_i[1] wb_adr_i[20] wb_adr_i[21] wb_adr_i[22] wb_adr_i[23] wb_adr_i[24] wb_adr_i[25]
+ wb_adr_i[26] wb_adr_i[27] wb_adr_i[28] wb_adr_i[29] wb_adr_i[2] wb_adr_i[30] wb_adr_i[31]
+ wb_adr_i[3] wb_adr_i[4] wb_adr_i[5] wb_adr_i[6] wb_adr_i[7] wb_adr_i[8] wb_adr_i[9]
+ wb_clk_i wb_cyc_i wb_dat_i[0] wb_dat_i[10] wb_dat_i[11] wb_dat_i[12] wb_dat_i[13]
+ wb_dat_i[14] wb_dat_i[15] wb_dat_i[16] wb_dat_i[17] wb_dat_i[18] wb_dat_i[19] wb_dat_i[1]
+ wb_dat_i[20] wb_dat_i[21] wb_dat_i[22] wb_dat_i[23] wb_dat_i[24] wb_dat_i[25] wb_dat_i[26]
+ wb_dat_i[27] wb_dat_i[28] wb_dat_i[29] wb_dat_i[2] wb_dat_i[30] wb_dat_i[31] wb_dat_i[3]
+ wb_dat_i[4] wb_dat_i[5] wb_dat_i[6] wb_dat_i[7] wb_dat_i[8] wb_dat_i[9] wb_dat_o[0]
+ wb_dat_o[10] wb_dat_o[11] wb_dat_o[12] wb_dat_o[13] wb_dat_o[14] wb_dat_o[15] wb_dat_o[16]
+ wb_dat_o[17] wb_dat_o[18] wb_dat_o[19] wb_dat_o[1] wb_dat_o[20] wb_dat_o[21] wb_dat_o[22]
+ wb_dat_o[23] wb_dat_o[24] wb_dat_o[25] wb_dat_o[26] wb_dat_o[27] wb_dat_o[28] wb_dat_o[29]
+ wb_dat_o[2] wb_dat_o[30] wb_dat_o[31] wb_dat_o[3] wb_dat_o[4] wb_dat_o[5] wb_dat_o[6]
+ wb_dat_o[7] wb_dat_o[8] wb_dat_o[9] wb_rstn_i wb_sel_i[0] wb_sel_i[1] wb_sel_i[2]
+ wb_sel_i[3] wb_stb_i wb_we_i
XFILLER_100_149 VDD VSS gf180mcu_fd_sc_mcu7t5v0__fillcap_16
XFILLER_95_851 VDD VSS gf180mcu_fd_sc_mcu7t5v0__fill_1
XFILLER_39_233 VDD VSS gf180mcu_fd_sc_mcu7t5v0__fillcap_4
XFILLER_55_704 VDD VSS gf180mcu_fd_sc_mcu7t5v0__fillcap_4
XFILLER_82_534 VDD VSS gf180mcu_fd_sc_mcu7t5v0__fill_2
XFILLER_27_428 VDD VSS gf180mcu_fd_sc_mcu7t5v0__fill_1
X_6914_ _6914_/D _6672_/Z _4111_/I1 _6914_/Q VDD VSS gf180mcu_fd_sc_mcu7t5v0__dffnrnq_1
XFILLER_54_247 VDD VSS gf180mcu_fd_sc_mcu7t5v0__fill_1
XFILLER_22_122 VDD VSS gf180mcu_fd_sc_mcu7t5v0__fill_2
X_6845_ _6845_/D _6862_/CLK _6845_/Q VDD VSS gf180mcu_fd_sc_mcu7t5v0__dffq_1
XFILLER_168_29 VDD VSS gf180mcu_fd_sc_mcu7t5v0__fillcap_4
X_3988_ _3991_/A2 _6707_/Q _6708_/Q _3989_/A2 VDD VSS gf180mcu_fd_sc_mcu7t5v0__nand3_1
X_6776_ _6776_/D _6667_/Z _4111_/I1 _6776_/Q VDD VSS gf180mcu_fd_sc_mcu7t5v0__dffrnq_2
X_5727_ _5784_/A2 _5535_/B _5727_/A3 _5802_/A2 _5735_/S VDD VSS gf180mcu_fd_sc_mcu7t5v0__nand4_4
XFILLER_182_108 VDD VSS gf180mcu_fd_sc_mcu7t5v0__fill_1
XFILLER_184_17 VDD VSS gf180mcu_fd_sc_mcu7t5v0__fill_2
XFILLER_108_238 VDD VSS gf180mcu_fd_sc_mcu7t5v0__fillcap_8
X_5658_ hold25/Z hold527/Z _5663_/S _7042_/D VDD VSS gf180mcu_fd_sc_mcu7t5v0__mux2_2
XFILLER_164_889 VDD VSS gf180mcu_fd_sc_mcu7t5v0__fillcap_8
X_4609_ _4443_/Z _5459_/A3 _5404_/B2 _5225_/A2 _4609_/Z VDD VSS gf180mcu_fd_sc_mcu7t5v0__and4_1
XFILLER_163_377 VDD VSS gf180mcu_fd_sc_mcu7t5v0__fillcap_8
X_5589_ hold58/Z hold355/Z _5590_/S _5589_/Z VDD VSS gf180mcu_fd_sc_mcu7t5v0__mux2_2
X_7328_ _7328_/D _6682_/Z _4089_/I1 _7328_/Q VDD VSS gf180mcu_fd_sc_mcu7t5v0__dffrnq_1
XFILLER_117_783 VDD VSS gf180mcu_fd_sc_mcu7t5v0__fill_1
XFILLER_117_794 VDD VSS gf180mcu_fd_sc_mcu7t5v0__fillcap_4
XFILLER_116_260 VDD VSS gf180mcu_fd_sc_mcu7t5v0__fillcap_16
XFILLER_2_516 VDD VSS gf180mcu_fd_sc_mcu7t5v0__fillcap_8
Xhold351 _5769_/Z _7140_/D VDD VSS gf180mcu_fd_sc_mcu7t5v0__dlyd_4
Xhold340 _7119_/Q hold340/Z VDD VSS gf180mcu_fd_sc_mcu7t5v0__dlyd_4
Xhold362 _7046_/Q hold362/Z VDD VSS gf180mcu_fd_sc_mcu7t5v0__dlyd_4
Xhold395 _5560_/Z _6956_/D VDD VSS gf180mcu_fd_sc_mcu7t5v0__dlyd_4
Xhold373 _5624_/Z _7013_/D VDD VSS gf180mcu_fd_sc_mcu7t5v0__dlyd_4
X_7259_ _7259_/D _7341_/RN _7259_/CLK _7259_/Q VDD VSS gf180mcu_fd_sc_mcu7t5v0__dffrnq_1
XFILLER_89_144 VDD VSS gf180mcu_fd_sc_mcu7t5v0__fill_1
XFILLER_89_133 VDD VSS gf180mcu_fd_sc_mcu7t5v0__fill_2
XFILLER_78_818 VDD VSS gf180mcu_fd_sc_mcu7t5v0__fill_1
Xhold384 _4167_/Z _6732_/D VDD VSS gf180mcu_fd_sc_mcu7t5v0__dlyd_4
XFILLER_131_274 VDD VSS gf180mcu_fd_sc_mcu7t5v0__fillcap_8
XFILLER_131_252 VDD VSS gf180mcu_fd_sc_mcu7t5v0__fillcap_8
XFILLER_131_296 VDD VSS gf180mcu_fd_sc_mcu7t5v0__fillcap_16
XFILLER_133_54 VDD VSS gf180mcu_fd_sc_mcu7t5v0__fillcap_4
XFILLER_92_309 VDD VSS gf180mcu_fd_sc_mcu7t5v0__fillcap_8
XTAP_2501 VDD VSS gf180mcu_fd_sc_mcu7t5v0__filltie
XFILLER_85_372 VDD VSS gf180mcu_fd_sc_mcu7t5v0__fill_2
XFILLER_58_597 VDD VSS gf180mcu_fd_sc_mcu7t5v0__fillcap_4
XTAP_2545 VDD VSS gf180mcu_fd_sc_mcu7t5v0__filltie
XTAP_2534 VDD VSS gf180mcu_fd_sc_mcu7t5v0__filltie
XTAP_2523 VDD VSS gf180mcu_fd_sc_mcu7t5v0__filltie
XTAP_2512 VDD VSS gf180mcu_fd_sc_mcu7t5v0__filltie
XTAP_1800 VDD VSS gf180mcu_fd_sc_mcu7t5v0__filltie
XFILLER_73_567 VDD VSS gf180mcu_fd_sc_mcu7t5v0__fill_1
XTAP_2578 VDD VSS gf180mcu_fd_sc_mcu7t5v0__filltie
XTAP_2567 VDD VSS gf180mcu_fd_sc_mcu7t5v0__filltie
XTAP_2556 VDD VSS gf180mcu_fd_sc_mcu7t5v0__filltie
XFILLER_165_2 VDD VSS gf180mcu_fd_sc_mcu7t5v0__fillcap_4
XTAP_1833 VDD VSS gf180mcu_fd_sc_mcu7t5v0__filltie
XTAP_1822 VDD VSS gf180mcu_fd_sc_mcu7t5v0__filltie
XTAP_1811 VDD VSS gf180mcu_fd_sc_mcu7t5v0__filltie
XTAP_2589 VDD VSS gf180mcu_fd_sc_mcu7t5v0__filltie
XTAP_1866 VDD VSS gf180mcu_fd_sc_mcu7t5v0__filltie
XTAP_1855 VDD VSS gf180mcu_fd_sc_mcu7t5v0__filltie
XTAP_1844 VDD VSS gf180mcu_fd_sc_mcu7t5v0__filltie
XFILLER_41_420 VDD VSS gf180mcu_fd_sc_mcu7t5v0__fillcap_4
XFILLER_158_127 VDD VSS gf180mcu_fd_sc_mcu7t5v0__fillcap_4
XFILLER_158_105 VDD VSS gf180mcu_fd_sc_mcu7t5v0__fill_1
XTAP_1888 VDD VSS gf180mcu_fd_sc_mcu7t5v0__filltie
XTAP_1899 VDD VSS gf180mcu_fd_sc_mcu7t5v0__filltie
XTAP_1877 VDD VSS gf180mcu_fd_sc_mcu7t5v0__filltie
XFILLER_13_144 VDD VSS gf180mcu_fd_sc_mcu7t5v0__fill_1
XFILLER_167_661 VDD VSS gf180mcu_fd_sc_mcu7t5v0__fill_1
XFILLER_6_811 VDD VSS gf180mcu_fd_sc_mcu7t5v0__fillcap_4
XFILLER_158_84 VDD VSS gf180mcu_fd_sc_mcu7t5v0__fill_2
XFILLER_181_141 VDD VSS gf180mcu_fd_sc_mcu7t5v0__fill_1
XFILLER_170_815 VDD VSS gf180mcu_fd_sc_mcu7t5v0__fill_1
XFILLER_115_709 VDD VSS gf180mcu_fd_sc_mcu7t5v0__fill_1
XFILLER_5_354 VDD VSS gf180mcu_fd_sc_mcu7t5v0__fill_1
XFILLER_154_388 VDD VSS gf180mcu_fd_sc_mcu7t5v0__fill_2
XFILLER_142_528 VDD VSS gf180mcu_fd_sc_mcu7t5v0__fillcap_4
XFILLER_107_260 VDD VSS gf180mcu_fd_sc_mcu7t5v0__fillcap_8
XFILLER_122_274 VDD VSS gf180mcu_fd_sc_mcu7t5v0__fillcap_4
XFILLER_3_34 VDD VSS gf180mcu_fd_sc_mcu7t5v0__fill_2
XFILLER_150_594 VDD VSS gf180mcu_fd_sc_mcu7t5v0__fillcap_8
XFILLER_77_851 VDD VSS gf180mcu_fd_sc_mcu7t5v0__fill_1
XFILLER_64_534 VDD VSS gf180mcu_fd_sc_mcu7t5v0__fillcap_16
XFILLER_37_759 VDD VSS gf180mcu_fd_sc_mcu7t5v0__fill_2
XFILLER_92_876 VDD VSS gf180mcu_fd_sc_mcu7t5v0__fill_2
XFILLER_36_247 VDD VSS gf180mcu_fd_sc_mcu7t5v0__fill_1
X_4960_ _4958_/B _4777_/C _4960_/B _4960_/C _5104_/B1 VDD VSS gf180mcu_fd_sc_mcu7t5v0__oai211_2
XFILLER_64_589 VDD VSS gf180mcu_fd_sc_mcu7t5v0__fillcap_8
X_3911_ _6887_/Q _5655_/A4 _4405_/A3 _5546_/A2 _3954_/A4 VDD VSS gf180mcu_fd_sc_mcu7t5v0__nand4_2
X_4891_ _4891_/A1 _5263_/A3 _4891_/A3 _5469_/A4 _4893_/B VDD VSS gf180mcu_fd_sc_mcu7t5v0__nand4_1
X_6630_ _6630_/I0 _7318_/Q _6642_/S _7318_/D VDD VSS gf180mcu_fd_sc_mcu7t5v0__mux2_2
XFILLER_177_425 VDD VSS gf180mcu_fd_sc_mcu7t5v0__fill_1
X_3842_ _7065_/Q _3980_/A2 _3842_/B _3845_/A3 VDD VSS gf180mcu_fd_sc_mcu7t5v0__aoi21_1
XFILLER_177_469 VDD VSS gf180mcu_fd_sc_mcu7t5v0__fill_2
XFILLER_80_2 VDD VSS gf180mcu_fd_sc_mcu7t5v0__fill_1
X_6561_ _6902_/Q _6563_/A3 _6561_/A3 _6563_/A4 _6565_/A2 VDD VSS gf180mcu_fd_sc_mcu7t5v0__nand4_1
XFILLER_164_108 VDD VSS gf180mcu_fd_sc_mcu7t5v0__fillcap_4
X_3773_ _3773_/A1 _3773_/A2 _3773_/A3 _3773_/A4 _3790_/A2 VDD VSS gf180mcu_fd_sc_mcu7t5v0__nand4_1
X_5512_ _5856_/A1 _5745_/A4 _5552_/A2 _5838_/A4 _5517_/S VDD VSS gf180mcu_fd_sc_mcu7t5v0__nand4_4
XFILLER_146_834 VDD VSS gf180mcu_fd_sc_mcu7t5v0__fill_2
X_6492_ hold60/I _6285_/Z _6294_/Z _7038_/Q _6564_/C1 _7086_/Q _6499_/A2 VDD VSS gf180mcu_fd_sc_mcu7t5v0__aoi222_1
XFILLER_9_682 VDD VSS gf180mcu_fd_sc_mcu7t5v0__fill_2
XFILLER_146_889 VDD VSS gf180mcu_fd_sc_mcu7t5v0__fillcap_8
X_5443_ _5481_/A1 _5443_/A2 _5504_/A2 _5487_/A2 _5448_/A1 VDD VSS gf180mcu_fd_sc_mcu7t5v0__nor4_1
X_5374_ _5376_/A1 _5374_/A2 _5498_/A2 _5454_/A2 _5374_/C _5412_/A2 VDD VSS gf180mcu_fd_sc_mcu7t5v0__aoi221_2
X_4325_ _6600_/I0 _6840_/Q _4328_/S _6840_/D VDD VSS gf180mcu_fd_sc_mcu7t5v0__mux2_2
X_7113_ _7113_/D _7302_/RN _7113_/CLK _7113_/Q VDD VSS gf180mcu_fd_sc_mcu7t5v0__dffsnq_1
XFILLER_87_615 VDD VSS gf180mcu_fd_sc_mcu7t5v0__fillcap_8
X_4256_ hold313/Z hold164/Z _4262_/S _4256_/Z VDD VSS gf180mcu_fd_sc_mcu7t5v0__mux2_2
Xnet483_109 net483_129/I _7160_/CLK VDD VSS gf180mcu_fd_sc_mcu7t5v0__clkinv_1
X_7044_ _7044_/D _7302_/RN _7044_/CLK _7044_/Q VDD VSS gf180mcu_fd_sc_mcu7t5v0__dffrnq_1
X_4187_ hold5/Z hold235/Z _4189_/S _4187_/Z VDD VSS gf180mcu_fd_sc_mcu7t5v0__mux2_2
XFILLER_27_225 VDD VSS gf180mcu_fd_sc_mcu7t5v0__fill_2
XFILLER_103_35 VDD VSS gf180mcu_fd_sc_mcu7t5v0__fill_2