* NGSPICE file created from housekeeping.ext - technology: gf180mcuC

* Black-box entry subcircuit for gf180mcu_fd_sc_mcu7t5v0__nand2_1 abstract view
.subckt gf180mcu_fd_sc_mcu7t5v0__nand2_1 A1 A2 ZN VDD VSS
.ends

* Black-box entry subcircuit for gf180mcu_fd_sc_mcu7t5v0__antenna abstract view
.subckt gf180mcu_fd_sc_mcu7t5v0__antenna I VDD VSS
.ends

* Black-box entry subcircuit for gf180mcu_fd_sc_mcu7t5v0__nor2_1 abstract view
.subckt gf180mcu_fd_sc_mcu7t5v0__nor2_1 A1 A2 ZN VDD VSS
.ends

* Black-box entry subcircuit for gf180mcu_fd_sc_mcu7t5v0__nor2_4 abstract view
.subckt gf180mcu_fd_sc_mcu7t5v0__nor2_4 A1 A2 ZN VDD VSS
.ends

* Black-box entry subcircuit for gf180mcu_fd_sc_mcu7t5v0__fill_1 abstract view
.subckt gf180mcu_fd_sc_mcu7t5v0__fill_1 VDD VSS
.ends

* Black-box entry subcircuit for gf180mcu_fd_sc_mcu7t5v0__filltie abstract view
.subckt gf180mcu_fd_sc_mcu7t5v0__filltie VDD VSS
.ends

* Black-box entry subcircuit for gf180mcu_fd_sc_mcu7t5v0__clkbuf_1 abstract view
.subckt gf180mcu_fd_sc_mcu7t5v0__clkbuf_1 I Z VDD VSS
.ends

* Black-box entry subcircuit for gf180mcu_fd_sc_mcu7t5v0__clkinv_2 abstract view
.subckt gf180mcu_fd_sc_mcu7t5v0__clkinv_2 I ZN VDD VSS
.ends

* Black-box entry subcircuit for gf180mcu_fd_sc_mcu7t5v0__oai21_1 abstract view
.subckt gf180mcu_fd_sc_mcu7t5v0__oai21_1 A1 A2 B ZN VDD VSS
.ends

* Black-box entry subcircuit for gf180mcu_fd_sc_mcu7t5v0__aoi22_1 abstract view
.subckt gf180mcu_fd_sc_mcu7t5v0__aoi22_1 A1 A2 B1 B2 ZN VDD VSS
.ends

* Black-box entry subcircuit for gf180mcu_fd_sc_mcu7t5v0__nand2_2 abstract view
.subckt gf180mcu_fd_sc_mcu7t5v0__nand2_2 A1 A2 ZN VDD VSS
.ends

* Black-box entry subcircuit for gf180mcu_fd_sc_mcu7t5v0__fillcap_16 abstract view
.subckt gf180mcu_fd_sc_mcu7t5v0__fillcap_16 VDD VSS
.ends

* Black-box entry subcircuit for gf180mcu_fd_sc_mcu7t5v0__dffrnq_1 abstract view
.subckt gf180mcu_fd_sc_mcu7t5v0__dffrnq_1 D RN CLK Q VDD VSS
.ends

* Black-box entry subcircuit for gf180mcu_fd_sc_mcu7t5v0__aoi221_1 abstract view
.subckt gf180mcu_fd_sc_mcu7t5v0__aoi221_1 A1 A2 B1 B2 C ZN VDD VSS
.ends

* Black-box entry subcircuit for gf180mcu_fd_sc_mcu7t5v0__nand4_1 abstract view
.subckt gf180mcu_fd_sc_mcu7t5v0__nand4_1 A1 A2 A3 A4 ZN VDD VSS
.ends

* Black-box entry subcircuit for gf180mcu_fd_sc_mcu7t5v0__dffq_1 abstract view
.subckt gf180mcu_fd_sc_mcu7t5v0__dffq_1 D CLK Q VDD VSS
.ends

* Black-box entry subcircuit for gf180mcu_fd_sc_mcu7t5v0__fillcap_4 abstract view
.subckt gf180mcu_fd_sc_mcu7t5v0__fillcap_4 VDD VSS
.ends

* Black-box entry subcircuit for gf180mcu_fd_sc_mcu7t5v0__oai211_1 abstract view
.subckt gf180mcu_fd_sc_mcu7t5v0__oai211_1 A1 A2 B C ZN VDD VSS
.ends

* Black-box entry subcircuit for gf180mcu_fd_sc_mcu7t5v0__inv_1 abstract view
.subckt gf180mcu_fd_sc_mcu7t5v0__inv_1 I ZN VDD VSS
.ends

* Black-box entry subcircuit for gf180mcu_fd_sc_mcu7t5v0__buf_4 abstract view
.subckt gf180mcu_fd_sc_mcu7t5v0__buf_4 I Z VDD VSS
.ends

* Black-box entry subcircuit for gf180mcu_fd_sc_mcu7t5v0__clkinv_1 abstract view
.subckt gf180mcu_fd_sc_mcu7t5v0__clkinv_1 I ZN VDD VSS
.ends

* Black-box entry subcircuit for gf180mcu_fd_sc_mcu7t5v0__aoi21_1 abstract view
.subckt gf180mcu_fd_sc_mcu7t5v0__aoi21_1 A1 A2 B ZN VDD VSS
.ends

* Black-box entry subcircuit for gf180mcu_fd_sc_mcu7t5v0__nor2_2 abstract view
.subckt gf180mcu_fd_sc_mcu7t5v0__nor2_2 A1 A2 ZN VDD VSS
.ends

* Black-box entry subcircuit for gf180mcu_fd_sc_mcu7t5v0__fillcap_32 abstract view
.subckt gf180mcu_fd_sc_mcu7t5v0__fillcap_32 VDD VSS
.ends

* Black-box entry subcircuit for gf180mcu_fd_sc_mcu7t5v0__oai22_1 abstract view
.subckt gf180mcu_fd_sc_mcu7t5v0__oai22_1 A1 A2 B1 B2 ZN VDD VSS
.ends

* Black-box entry subcircuit for gf180mcu_fd_sc_mcu7t5v0__fillcap_8 abstract view
.subckt gf180mcu_fd_sc_mcu7t5v0__fillcap_8 VDD VSS
.ends

* Black-box entry subcircuit for gf180mcu_fd_sc_mcu7t5v0__clkbuf_4 abstract view
.subckt gf180mcu_fd_sc_mcu7t5v0__clkbuf_4 I Z VDD VSS
.ends

* Black-box entry subcircuit for gf180mcu_fd_sc_mcu7t5v0__nand2_4 abstract view
.subckt gf180mcu_fd_sc_mcu7t5v0__nand2_4 A1 A2 ZN VDD VSS
.ends

* Black-box entry subcircuit for gf180mcu_fd_sc_mcu7t5v0__dffsnq_1 abstract view
.subckt gf180mcu_fd_sc_mcu7t5v0__dffsnq_1 D SETN CLK Q VDD VSS
.ends

* Black-box entry subcircuit for gf180mcu_fd_sc_mcu7t5v0__nor3_1 abstract view
.subckt gf180mcu_fd_sc_mcu7t5v0__nor3_1 A1 A2 A3 ZN VDD VSS
.ends

* Black-box entry subcircuit for gf180mcu_fd_sc_mcu7t5v0__nand3_2 abstract view
.subckt gf180mcu_fd_sc_mcu7t5v0__nand3_2 A1 A2 A3 ZN VDD VSS
.ends

* Black-box entry subcircuit for gf180mcu_fd_sc_mcu7t5v0__nor4_1 abstract view
.subckt gf180mcu_fd_sc_mcu7t5v0__nor4_1 A1 A2 A3 A4 ZN VDD VSS
.ends

* Black-box entry subcircuit for gf180mcu_fd_sc_mcu7t5v0__nor3_2 abstract view
.subckt gf180mcu_fd_sc_mcu7t5v0__nor3_2 A1 A2 A3 ZN VDD VSS
.ends

* Black-box entry subcircuit for gf180mcu_fd_sc_mcu7t5v0__aoi211_1 abstract view
.subckt gf180mcu_fd_sc_mcu7t5v0__aoi211_1 A1 A2 B C ZN VDD VSS
.ends

* Black-box entry subcircuit for gf180mcu_fd_sc_mcu7t5v0__nand3_1 abstract view
.subckt gf180mcu_fd_sc_mcu7t5v0__nand3_1 A1 A2 A3 ZN VDD VSS
.ends

* Black-box entry subcircuit for gf180mcu_fd_sc_mcu7t5v0__clkbuf_2 abstract view
.subckt gf180mcu_fd_sc_mcu7t5v0__clkbuf_2 I Z VDD VSS
.ends

* Black-box entry subcircuit for gf180mcu_fd_sc_mcu7t5v0__fillcap_64 abstract view
.subckt gf180mcu_fd_sc_mcu7t5v0__fillcap_64 VDD VSS
.ends

* Black-box entry subcircuit for gf180mcu_fd_sc_mcu7t5v0__clkbuf_16 abstract view
.subckt gf180mcu_fd_sc_mcu7t5v0__clkbuf_16 I Z VDD VSS
.ends

* Black-box entry subcircuit for gf180mcu_fd_sc_mcu7t5v0__endcap abstract view
.subckt gf180mcu_fd_sc_mcu7t5v0__endcap VDD VSS
.ends

* Black-box entry subcircuit for gf180mcu_fd_sc_mcu7t5v0__buf_1 abstract view
.subckt gf180mcu_fd_sc_mcu7t5v0__buf_1 I Z VDD VSS
.ends

* Black-box entry subcircuit for gf180mcu_fd_sc_mcu7t5v0__inv_2 abstract view
.subckt gf180mcu_fd_sc_mcu7t5v0__inv_2 I ZN VDD VSS
.ends

* Black-box entry subcircuit for gf180mcu_fd_sc_mcu7t5v0__oai32_1 abstract view
.subckt gf180mcu_fd_sc_mcu7t5v0__oai32_1 A1 A2 A3 B1 B2 ZN VDD VSS
.ends

* Black-box entry subcircuit for gf180mcu_fd_sc_mcu7t5v0__inv_3 abstract view
.subckt gf180mcu_fd_sc_mcu7t5v0__inv_3 I ZN VDD VSS
.ends

* Black-box entry subcircuit for gf180mcu_fd_sc_mcu7t5v0__oai31_1 abstract view
.subckt gf180mcu_fd_sc_mcu7t5v0__oai31_1 A1 A2 A3 B ZN VDD VSS
.ends

* Black-box entry subcircuit for gf180mcu_fd_sc_mcu7t5v0__clkinv_3 abstract view
.subckt gf180mcu_fd_sc_mcu7t5v0__clkinv_3 I ZN VDD VSS
.ends

* Black-box entry subcircuit for gf180mcu_fd_sc_mcu7t5v0__and2_1 abstract view
.subckt gf180mcu_fd_sc_mcu7t5v0__and2_1 A1 A2 Z VDD VSS
.ends

* Black-box entry subcircuit for gf180mcu_fd_sc_mcu7t5v0__and4_1 abstract view
.subckt gf180mcu_fd_sc_mcu7t5v0__and4_1 A1 A2 A3 A4 Z VDD VSS
.ends

* Black-box entry subcircuit for gf180mcu_fd_sc_mcu7t5v0__clkinv_4 abstract view
.subckt gf180mcu_fd_sc_mcu7t5v0__clkinv_4 I ZN VDD VSS
.ends

* Black-box entry subcircuit for gf180mcu_fd_sc_mcu7t5v0__or2_1 abstract view
.subckt gf180mcu_fd_sc_mcu7t5v0__or2_1 A1 A2 Z VDD VSS
.ends

* Black-box entry subcircuit for gf180mcu_fd_sc_mcu7t5v0__dlya_2 abstract view
.subckt gf180mcu_fd_sc_mcu7t5v0__dlya_2 I Z VDD VSS
.ends

* Black-box entry subcircuit for gf180mcu_fd_sc_mcu7t5v0__or3_1 abstract view
.subckt gf180mcu_fd_sc_mcu7t5v0__or3_1 A1 A2 A3 Z VDD VSS
.ends

* Black-box entry subcircuit for gf180mcu_fd_sc_mcu7t5v0__oai211_4 abstract view
.subckt gf180mcu_fd_sc_mcu7t5v0__oai211_4 A1 A2 B C ZN VDD VSS
.ends

* Black-box entry subcircuit for gf180mcu_fd_sc_mcu7t5v0__buf_3 abstract view
.subckt gf180mcu_fd_sc_mcu7t5v0__buf_3 I Z VDD VSS
.ends

* Black-box entry subcircuit for gf180mcu_fd_sc_mcu7t5v0__buf_2 abstract view
.subckt gf180mcu_fd_sc_mcu7t5v0__buf_2 I Z VDD VSS
.ends

* Black-box entry subcircuit for gf180mcu_fd_sc_mcu7t5v0__and3_1 abstract view
.subckt gf180mcu_fd_sc_mcu7t5v0__and3_1 A1 A2 A3 Z VDD VSS
.ends

* Black-box entry subcircuit for gf180mcu_fd_sc_mcu7t5v0__nor3_4 abstract view
.subckt gf180mcu_fd_sc_mcu7t5v0__nor3_4 A1 A2 A3 ZN VDD VSS
.ends

* Black-box entry subcircuit for gf180mcu_fd_sc_mcu7t5v0__aoi211_4 abstract view
.subckt gf180mcu_fd_sc_mcu7t5v0__aoi211_4 A1 A2 B C ZN VDD VSS
.ends

* Black-box entry subcircuit for gf180mcu_fd_sc_mcu7t5v0__oai21_2 abstract view
.subckt gf180mcu_fd_sc_mcu7t5v0__oai21_2 A1 A2 B ZN VDD VSS
.ends

* Black-box entry subcircuit for gf180mcu_fd_sc_mcu7t5v0__dffnrnq_1 abstract view
.subckt gf180mcu_fd_sc_mcu7t5v0__dffnrnq_1 D RN CLKN Q VDD VSS
.ends

* Black-box entry subcircuit for gf180mcu_fd_sc_mcu7t5v0__clkbuf_20 abstract view
.subckt gf180mcu_fd_sc_mcu7t5v0__clkbuf_20 I Z VDD VSS
.ends

* Black-box entry subcircuit for gf180mcu_fd_sc_mcu7t5v0__oai21_4 abstract view
.subckt gf180mcu_fd_sc_mcu7t5v0__oai21_4 A1 A2 B ZN VDD VSS
.ends

* Black-box entry subcircuit for gf180mcu_fd_sc_mcu7t5v0__or4_1 abstract view
.subckt gf180mcu_fd_sc_mcu7t5v0__or4_1 A1 A2 A3 A4 Z VDD VSS
.ends

* Black-box entry subcircuit for gf180mcu_fd_sc_mcu7t5v0__buf_8 abstract view
.subckt gf180mcu_fd_sc_mcu7t5v0__buf_8 I Z VDD VSS
.ends

* Black-box entry subcircuit for gf180mcu_fd_sc_mcu7t5v0__aoi221_2 abstract view
.subckt gf180mcu_fd_sc_mcu7t5v0__aoi221_2 A1 A2 B1 B2 C ZN VDD VSS
.ends

* Black-box entry subcircuit for gf180mcu_fd_sc_mcu7t5v0__dffsnq_2 abstract view
.subckt gf180mcu_fd_sc_mcu7t5v0__dffsnq_2 D SETN CLK Q VDD VSS
.ends

* Black-box entry subcircuit for gf180mcu_fd_sc_mcu7t5v0__buf_20 abstract view
.subckt gf180mcu_fd_sc_mcu7t5v0__buf_20 I Z VDD VSS
.ends

* Black-box entry subcircuit for gf180mcu_fd_sc_mcu7t5v0__nand4_4 abstract view
.subckt gf180mcu_fd_sc_mcu7t5v0__nand4_4 A1 A2 A3 A4 ZN VDD VSS
.ends

* Black-box entry subcircuit for gf180mcu_fd_sc_mcu7t5v0__nor4_2 abstract view
.subckt gf180mcu_fd_sc_mcu7t5v0__nor4_2 A1 A2 A3 A4 ZN VDD VSS
.ends

* Black-box entry subcircuit for gf180mcu_fd_sc_mcu7t5v0__and2_2 abstract view
.subckt gf180mcu_fd_sc_mcu7t5v0__and2_2 A1 A2 Z VDD VSS
.ends

* Black-box entry subcircuit for gf180mcu_fd_sc_mcu7t5v0__nand4_2 abstract view
.subckt gf180mcu_fd_sc_mcu7t5v0__nand4_2 A1 A2 A3 A4 ZN VDD VSS
.ends

* Black-box entry subcircuit for gf180mcu_fd_sc_mcu7t5v0__inv_4 abstract view
.subckt gf180mcu_fd_sc_mcu7t5v0__inv_4 I ZN VDD VSS
.ends

* Black-box entry subcircuit for gf180mcu_fd_sc_mcu7t5v0__oai221_1 abstract view
.subckt gf180mcu_fd_sc_mcu7t5v0__oai221_1 A1 A2 B1 B2 C ZN VDD VSS
.ends

* Black-box entry subcircuit for gf180mcu_fd_sc_mcu7t5v0__dffnsnq_1 abstract view
.subckt gf180mcu_fd_sc_mcu7t5v0__dffnsnq_1 D SETN CLKN Q VDD VSS
.ends

* Black-box entry subcircuit for gf180mcu_fd_sc_mcu7t5v0__aoi211_2 abstract view
.subckt gf180mcu_fd_sc_mcu7t5v0__aoi211_2 A1 A2 B C ZN VDD VSS
.ends

* Black-box entry subcircuit for gf180mcu_fd_sc_mcu7t5v0__tieh abstract view
.subckt gf180mcu_fd_sc_mcu7t5v0__tieh Z VDD VSS
.ends

* Black-box entry subcircuit for gf180mcu_fd_sc_mcu7t5v0__dffrnq_2 abstract view
.subckt gf180mcu_fd_sc_mcu7t5v0__dffrnq_2 D RN CLK Q VDD VSS
.ends

* Black-box entry subcircuit for gf180mcu_fd_sc_mcu7t5v0__nor4_4 abstract view
.subckt gf180mcu_fd_sc_mcu7t5v0__nor4_4 A1 A2 A3 A4 ZN VDD VSS
.ends

* Black-box entry subcircuit for gf180mcu_fd_sc_mcu7t5v0__clkbuf_8 abstract view
.subckt gf180mcu_fd_sc_mcu7t5v0__clkbuf_8 I Z VDD VSS
.ends

* Black-box entry subcircuit for gf180mcu_fd_sc_mcu7t5v0__nand3_4 abstract view
.subckt gf180mcu_fd_sc_mcu7t5v0__nand3_4 A1 A2 A3 ZN VDD VSS
.ends

* Black-box entry subcircuit for gf180mcu_fd_sc_mcu7t5v0__clkinv_20 abstract view
.subckt gf180mcu_fd_sc_mcu7t5v0__clkinv_20 I ZN VDD VSS
.ends

* Black-box entry subcircuit for gf180mcu_fd_sc_mcu7t5v0__dlya_1 abstract view
.subckt gf180mcu_fd_sc_mcu7t5v0__dlya_1 I Z VDD VSS
.ends

* Black-box entry subcircuit for gf180mcu_fd_sc_mcu7t5v0__and2_4 abstract view
.subckt gf180mcu_fd_sc_mcu7t5v0__and2_4 A1 A2 Z VDD VSS
.ends

* Black-box entry subcircuit for gf180mcu_fd_sc_mcu7t5v0__oai22_4 abstract view
.subckt gf180mcu_fd_sc_mcu7t5v0__oai22_4 A1 A2 B1 B2 ZN VDD VSS
.ends

.subckt housekeeping VDD VSS debug_in debug_mode debug_oeb debug_out irq[0] irq[1]
+ irq[2] mask_rev_in[0] mask_rev_in[10] mask_rev_in[11] mask_rev_in[12] mask_rev_in[13]
+ mask_rev_in[14] mask_rev_in[15] mask_rev_in[16] mask_rev_in[17] mask_rev_in[18]
+ mask_rev_in[19] mask_rev_in[1] mask_rev_in[20] mask_rev_in[21] mask_rev_in[22] mask_rev_in[23]
+ mask_rev_in[24] mask_rev_in[25] mask_rev_in[26] mask_rev_in[27] mask_rev_in[28]
+ mask_rev_in[29] mask_rev_in[2] mask_rev_in[30] mask_rev_in[31] mask_rev_in[3] mask_rev_in[4]
+ mask_rev_in[5] mask_rev_in[6] mask_rev_in[7] mask_rev_in[8] mask_rev_in[9] mgmt_gpio_in[0]
+ mgmt_gpio_in[10] mgmt_gpio_in[11] mgmt_gpio_in[12] mgmt_gpio_in[13] mgmt_gpio_in[14]
+ mgmt_gpio_in[15] mgmt_gpio_in[16] mgmt_gpio_in[17] mgmt_gpio_in[18] mgmt_gpio_in[19]
+ mgmt_gpio_in[1] mgmt_gpio_in[20] mgmt_gpio_in[21] mgmt_gpio_in[22] mgmt_gpio_in[23]
+ mgmt_gpio_in[24] mgmt_gpio_in[25] mgmt_gpio_in[26] mgmt_gpio_in[27] mgmt_gpio_in[28]
+ mgmt_gpio_in[29] mgmt_gpio_in[2] mgmt_gpio_in[30] mgmt_gpio_in[31] mgmt_gpio_in[32]
+ mgmt_gpio_in[33] mgmt_gpio_in[34] mgmt_gpio_in[35] mgmt_gpio_in[36] mgmt_gpio_in[37]
+ mgmt_gpio_in[3] mgmt_gpio_in[4] mgmt_gpio_in[5] mgmt_gpio_in[6] mgmt_gpio_in[7]
+ mgmt_gpio_in[8] mgmt_gpio_in[9] mgmt_gpio_oeb[0] mgmt_gpio_oeb[10] mgmt_gpio_oeb[11]
+ mgmt_gpio_oeb[12] mgmt_gpio_oeb[13] mgmt_gpio_oeb[14] mgmt_gpio_oeb[15] mgmt_gpio_oeb[16]
+ mgmt_gpio_oeb[17] mgmt_gpio_oeb[18] mgmt_gpio_oeb[19] mgmt_gpio_oeb[1] mgmt_gpio_oeb[20]
+ mgmt_gpio_oeb[21] mgmt_gpio_oeb[22] mgmt_gpio_oeb[23] mgmt_gpio_oeb[24] mgmt_gpio_oeb[25]
+ mgmt_gpio_oeb[26] mgmt_gpio_oeb[27] mgmt_gpio_oeb[28] mgmt_gpio_oeb[29] mgmt_gpio_oeb[2]
+ mgmt_gpio_oeb[30] mgmt_gpio_oeb[31] mgmt_gpio_oeb[32] mgmt_gpio_oeb[33] mgmt_gpio_oeb[34]
+ mgmt_gpio_oeb[35] mgmt_gpio_oeb[36] mgmt_gpio_oeb[37] mgmt_gpio_oeb[3] mgmt_gpio_oeb[4]
+ mgmt_gpio_oeb[5] mgmt_gpio_oeb[6] mgmt_gpio_oeb[7] mgmt_gpio_oeb[8] mgmt_gpio_oeb[9]
+ mgmt_gpio_out[0] mgmt_gpio_out[10] mgmt_gpio_out[11] mgmt_gpio_out[12] mgmt_gpio_out[13]
+ mgmt_gpio_out[14] mgmt_gpio_out[15] mgmt_gpio_out[16] mgmt_gpio_out[17] mgmt_gpio_out[18]
+ mgmt_gpio_out[19] mgmt_gpio_out[1] mgmt_gpio_out[20] mgmt_gpio_out[21] mgmt_gpio_out[22]
+ mgmt_gpio_out[23] mgmt_gpio_out[24] mgmt_gpio_out[25] mgmt_gpio_out[26] mgmt_gpio_out[27]
+ mgmt_gpio_out[28] mgmt_gpio_out[29] mgmt_gpio_out[2] mgmt_gpio_out[30] mgmt_gpio_out[31]
+ mgmt_gpio_out[32] mgmt_gpio_out[33] mgmt_gpio_out[34] mgmt_gpio_out[35] mgmt_gpio_out[36]
+ mgmt_gpio_out[37] mgmt_gpio_out[3] mgmt_gpio_out[4] mgmt_gpio_out[5] mgmt_gpio_out[6]
+ mgmt_gpio_out[7] mgmt_gpio_out[8] mgmt_gpio_out[9] pad_flash_clk pad_flash_clk_oe
+ pad_flash_csb pad_flash_csb_oe pad_flash_io0_di pad_flash_io0_do pad_flash_io0_ie
+ pad_flash_io0_oe pad_flash_io1_di pad_flash_io1_do pad_flash_io1_ie pad_flash_io1_oe
+ pll90_sel[0] pll90_sel[1] pll90_sel[2] pll_bypass pll_dco_ena pll_div[0] pll_div[1]
+ pll_div[2] pll_div[3] pll_div[4] pll_ena pll_sel[0] pll_sel[1] pll_sel[2] pll_trim[0]
+ pll_trim[10] pll_trim[11] pll_trim[12] pll_trim[13] pll_trim[14] pll_trim[15] pll_trim[16]
+ pll_trim[17] pll_trim[18] pll_trim[19] pll_trim[1] pll_trim[20] pll_trim[21] pll_trim[22]
+ pll_trim[23] pll_trim[24] pll_trim[25] pll_trim[2] pll_trim[3] pll_trim[4] pll_trim[5]
+ pll_trim[6] pll_trim[7] pll_trim[8] pll_trim[9] porb pwr_ctrl_out qspi_enabled reset
+ ser_rx ser_tx serial_clock serial_data_1 serial_data_2 serial_load serial_resetn
+ spi_csb spi_enabled spi_sck spi_sdi spi_sdo spi_sdoenb spimemio_flash_clk spimemio_flash_csb
+ spimemio_flash_io0_di spimemio_flash_io0_do spimemio_flash_io0_oeb spimemio_flash_io1_di
+ spimemio_flash_io1_do spimemio_flash_io1_oeb spimemio_flash_io2_di spimemio_flash_io2_do
+ spimemio_flash_io2_oeb spimemio_flash_io3_di spimemio_flash_io3_do spimemio_flash_io3_oeb
+ trap uart_enabled user_clock wb_ack_o wb_adr_i[0] wb_adr_i[10] wb_adr_i[11] wb_adr_i[12]
+ wb_adr_i[13] wb_adr_i[14] wb_adr_i[15] wb_adr_i[16] wb_adr_i[17] wb_adr_i[18] wb_adr_i[19]
+ wb_adr_i[1] wb_adr_i[20] wb_adr_i[21] wb_adr_i[22] wb_adr_i[23] wb_adr_i[24] wb_adr_i[25]
+ wb_adr_i[26] wb_adr_i[27] wb_adr_i[28] wb_adr_i[29] wb_adr_i[2] wb_adr_i[30] wb_adr_i[31]
+ wb_adr_i[3] wb_adr_i[4] wb_adr_i[5] wb_adr_i[6] wb_adr_i[7] wb_adr_i[8] wb_adr_i[9]
+ wb_clk_i wb_cyc_i wb_dat_i[0] wb_dat_i[10] wb_dat_i[11] wb_dat_i[12] wb_dat_i[13]
+ wb_dat_i[14] wb_dat_i[15] wb_dat_i[16] wb_dat_i[17] wb_dat_i[18] wb_dat_i[19] wb_dat_i[1]
+ wb_dat_i[20] wb_dat_i[21] wb_dat_i[22] wb_dat_i[23] wb_dat_i[24] wb_dat_i[25] wb_dat_i[26]
+ wb_dat_i[27] wb_dat_i[28] wb_dat_i[29] wb_dat_i[2] wb_dat_i[30] wb_dat_i[31] wb_dat_i[3]
+ wb_dat_i[4] wb_dat_i[5] wb_dat_i[6] wb_dat_i[7] wb_dat_i[8] wb_dat_i[9] wb_dat_o[0]
+ wb_dat_o[10] wb_dat_o[11] wb_dat_o[12] wb_dat_o[13] wb_dat_o[14] wb_dat_o[15] wb_dat_o[16]
+ wb_dat_o[17] wb_dat_o[18] wb_dat_o[19] wb_dat_o[1] wb_dat_o[20] wb_dat_o[21] wb_dat_o[22]
+ wb_dat_o[23] wb_dat_o[24] wb_dat_o[25] wb_dat_o[26] wb_dat_o[27] wb_dat_o[28] wb_dat_o[29]
+ wb_dat_o[2] wb_dat_o[30] wb_dat_o[31] wb_dat_o[3] wb_dat_o[4] wb_dat_o[5] wb_dat_o[6]
+ wb_dat_o[7] wb_dat_o[8] wb_dat_o[9] wb_rstn_i wb_sel_i[0] wb_sel_i[1] wb_sel_i[2]
+ wb_sel_i[3] wb_stb_i wb_we_i
X_05903_ _09624_/A1 _11560_/Q _05906_/A2 VDD VSS gf180mcu_fd_sc_mcu7t5v0__nand2_1
XANTENNA__10669__A1 _10883_/A1 VDD VSS gf180mcu_fd_sc_mcu7t5v0__antenna
X_06883_ _06902_/A2 _11094_/Q _06884_/B VDD VSS gf180mcu_fd_sc_mcu7t5v0__nand2_1
X_09671_ _09672_/A2 _11570_/Q _09672_/B VDD VSS gf180mcu_fd_sc_mcu7t5v0__nand2_1
X_08622_ _08622_/A1 _08622_/A2 _08624_/A3 VDD VSS gf180mcu_fd_sc_mcu7t5v0__nor2_1
X_05834_ _05647_/I _05668_/I _11033_/A2 VDD VSS gf180mcu_fd_sc_mcu7t5v0__nor2_4
XFILLER_39_288 VDD VSS gf180mcu_fd_sc_mcu7t5v0__fill_1
XANTENNA__11570__RN _11686_/RN VDD VSS gf180mcu_fd_sc_mcu7t5v0__antenna
X_08553_ _08553_/A1 _08553_/A2 _08647_/I VDD VSS gf180mcu_fd_sc_mcu7t5v0__nand2_1
X_05765_ _07006_/A2 _08839_/A2 _05766_/I VDD VSS gf180mcu_fd_sc_mcu7t5v0__nand2_1
X_07504_ _07938_/A2 _07513_/I _07505_/I VDD VSS gf180mcu_fd_sc_mcu7t5v0__nand2_1
X_08484_ _08484_/A1 _08484_/A2 _08485_/I VDD VSS gf180mcu_fd_sc_mcu7t5v0__nand2_1
XANTENNA_input108_I wb_adr_i[1] VDD VSS gf180mcu_fd_sc_mcu7t5v0__antenna
XANTENNA__06727__I _11358_/Q VDD VSS gf180mcu_fd_sc_mcu7t5v0__antenna
X_07435_ input101/Z input100/Z _07437_/A1 VDD VSS gf180mcu_fd_sc_mcu7t5v0__nand2_1
X_05696_ _09549_/A1 _11538_/Q _05697_/A2 VDD VSS gf180mcu_fd_sc_mcu7t5v0__nand2_1
XANTENNA__05848__A1 _08940_/A1 VDD VSS gf180mcu_fd_sc_mcu7t5v0__antenna
XANTENNA__10841__A1 _10883_/A1 VDD VSS gf180mcu_fd_sc_mcu7t5v0__antenna
XANTENNA__09039__A1 _06867_/Z VDD VSS gf180mcu_fd_sc_mcu7t5v0__antenna
XFILLER_22_155 VDD VSS gf180mcu_fd_sc_mcu7t5v0__filltie
XANTENNA__11322__RN input76/Z VDD VSS gf180mcu_fd_sc_mcu7t5v0__antenna
XANTENNA_clkbuf_3_3__f_wb_clk_i_I clkbuf_0_wb_clk_i/Z VDD VSS gf180mcu_fd_sc_mcu7t5v0__antenna
X_07366_ _07366_/I _11234_/D VDD VSS gf180mcu_fd_sc_mcu7t5v0__clkbuf_1
XFILLER_182_108 VDD VSS gf180mcu_fd_sc_mcu7t5v0__fill_1
X_06317_ _08846_/A1 input61/Z _06318_/A4 VDD VSS gf180mcu_fd_sc_mcu7t5v0__nand2_1
X_07297_ _07297_/I _07844_/B VDD VSS gf180mcu_fd_sc_mcu7t5v0__clkinv_2
XANTENNA__08262__A2 _07609_/Z VDD VSS gf180mcu_fd_sc_mcu7t5v0__antenna
X_09105_ _06855_/Z _09114_/A2 _09105_/B _09106_/I VDD VSS gf180mcu_fd_sc_mcu7t5v0__oai21_1
X_06248_ _09449_/A1 _11500_/Q _06252_/A2 VDD VSS gf180mcu_fd_sc_mcu7t5v0__nand2_1
XANTENNA_input73_I mgmt_gpio_in[9] VDD VSS gf180mcu_fd_sc_mcu7t5v0__antenna
X_09036_ _06863_/Z _09039_/A2 _09036_/B _09037_/I VDD VSS gf180mcu_fd_sc_mcu7t5v0__oai21_1
XANTENNA__06273__A1 _08839_/A1 VDD VSS gf180mcu_fd_sc_mcu7t5v0__antenna
X_06179_ _06324_/A1 _11588_/Q _07391_/A1 _11243_/Q _06181_/B VDD VSS gf180mcu_fd_sc_mcu7t5v0__aoi22_1
XANTENNA__09211__A1 _09158_/Z VDD VSS gf180mcu_fd_sc_mcu7t5v0__antenna
XANTENNA__11491__SETN _11686_/RN VDD VSS gf180mcu_fd_sc_mcu7t5v0__antenna
XANTENNA__06025__A1 input68/Z VDD VSS gf180mcu_fd_sc_mcu7t5v0__antenna
XANTENNA__06025__B2 input39/Z VDD VSS gf180mcu_fd_sc_mcu7t5v0__antenna
XANTENNA__07773__A1 _08592_/A2 VDD VSS gf180mcu_fd_sc_mcu7t5v0__antenna
X_09938_ _09938_/A1 _09938_/A2 _09938_/B _09940_/A1 VDD VSS gf180mcu_fd_sc_mcu7t5v0__oai21_1
X_09869_ _09927_/A2 _09946_/A1 _09902_/I VDD VSS gf180mcu_fd_sc_mcu7t5v0__nand2_2
XANTENNA__11561__RN _11686_/RN VDD VSS gf180mcu_fd_sc_mcu7t5v0__antenna
XFILLER_26_52 VDD VSS gf180mcu_fd_sc_mcu7t5v0__fill_1
XFILLER_26_483 VDD VSS gf180mcu_fd_sc_mcu7t5v0__fillcap_16
XANTENNA__05839__A1 _06266_/I VDD VSS gf180mcu_fd_sc_mcu7t5v0__antenna
XANTENNA__11313__RN _11686_/RN VDD VSS gf180mcu_fd_sc_mcu7t5v0__antenna
X_11693_ _11693_/D _11693_/RN input68/Z _11693_/Q VDD VSS gf180mcu_fd_sc_mcu7t5v0__dffrnq_1
XANTENNA__10832__A1 _10924_/A1 VDD VSS gf180mcu_fd_sc_mcu7t5v0__antenna
X_10713_ _11416_/Q _10888_/A1 _11408_/Q _10889_/A1 _10713_/C _10717_/A1 VDD VSS gf180mcu_fd_sc_mcu7t5v0__aoi221_1
X_10644_ _10644_/A1 _10644_/A2 _10644_/A3 _10644_/A4 _10645_/A4 VDD VSS gf180mcu_fd_sc_mcu7t5v0__nand4_1
XFILLER_9_137 VDD VSS gf180mcu_fd_sc_mcu7t5v0__filltie
XFILLER_139_352 VDD VSS gf180mcu_fd_sc_mcu7t5v0__fill_1
X_10575_ _10897_/B1 _11461_/Q _10578_/A2 VDD VSS gf180mcu_fd_sc_mcu7t5v0__nand2_1
XANTENNA__11444__SETN _11686_/RN VDD VSS gf180mcu_fd_sc_mcu7t5v0__antenna
XANTENNA__09450__A1 _09472_/A2 VDD VSS gf180mcu_fd_sc_mcu7t5v0__antenna
XANTENNA__11342__CLK _06705_/Z VDD VSS gf180mcu_fd_sc_mcu7t5v0__antenna
XANTENNA__10060__A2 _11412_/Q VDD VSS gf180mcu_fd_sc_mcu7t5v0__antenna
XANTENNA__09202__A1 _09121_/Z VDD VSS gf180mcu_fd_sc_mcu7t5v0__antenna
XANTENNA__11459__SETN _11686_/RN VDD VSS gf180mcu_fd_sc_mcu7t5v0__antenna
XANTENNA__10899__A1 _10899_/A1 VDD VSS gf180mcu_fd_sc_mcu7t5v0__antenna
XANTENNA__06016__A1 _09144_/A1 VDD VSS gf180mcu_fd_sc_mcu7t5v0__antenna
XANTENNA__11492__CLK _06705_/Z VDD VSS gf180mcu_fd_sc_mcu7t5v0__antenna
XANTENNA__07764__A1 _07722_/I VDD VSS gf180mcu_fd_sc_mcu7t5v0__antenna
X_11127_ _11127_/D _11683_/CLK _11127_/Q VDD VSS gf180mcu_fd_sc_mcu7t5v0__dffq_1
XFILLER_64_501 VDD VSS gf180mcu_fd_sc_mcu7t5v0__fill_1
X_11058_ _11058_/D _11058_/RN input68/Z _11058_/Q VDD VSS gf180mcu_fd_sc_mcu7t5v0__dffrnq_1
X_10009_ _10042_/A2 _10265_/A3 _10135_/A1 VDD VSS gf180mcu_fd_sc_mcu7t5v0__nand2_2
XANTENNA__11552__RN _11686_/RN VDD VSS gf180mcu_fd_sc_mcu7t5v0__antenna
X_05550_ _05550_/I _11696_/D VDD VSS gf180mcu_fd_sc_mcu7t5v0__clkbuf_1
XFILLER_17_494 VDD VSS gf180mcu_fd_sc_mcu7t5v0__fillcap_4
XANTENNA__10823__A1 _10914_/B1 VDD VSS gf180mcu_fd_sc_mcu7t5v0__antenna
XANTENNA__08492__A2 _07564_/I VDD VSS gf180mcu_fd_sc_mcu7t5v0__antenna
XANTENNA__11304__RN _11686_/RN VDD VSS gf180mcu_fd_sc_mcu7t5v0__antenna
XFILLER_80_2 VDD VSS gf180mcu_fd_sc_mcu7t5v0__fill_1
X_07220_ _07240_/A1 _07220_/A2 _07220_/B _07221_/I VDD VSS gf180mcu_fd_sc_mcu7t5v0__oai21_1
X_07151_ _11196_/Q _05927_/Z _07151_/B _07151_/C _07152_/B VDD VSS gf180mcu_fd_sc_mcu7t5v0__oai211_1
XANTENNA__09441__A1 _09187_/Z VDD VSS gf180mcu_fd_sc_mcu7t5v0__antenna
XANTENNA__06255__A1 _08825_/A1 VDD VSS gf180mcu_fd_sc_mcu7t5v0__antenna
X_06102_ _06102_/A1 _06619_/B _06102_/B _06103_/I VDD VSS gf180mcu_fd_sc_mcu7t5v0__oai21_1
X_07082_ _07083_/A2 _11152_/Q _07083_/B VDD VSS gf180mcu_fd_sc_mcu7t5v0__nand2_1
X_06033_ _09750_/A1 _11599_/Q _06034_/A4 VDD VSS gf180mcu_fd_sc_mcu7t5v0__nand2_1
XANTENNA__11000__A1 _11000_/A1 VDD VSS gf180mcu_fd_sc_mcu7t5v0__antenna
XFILLER_59_306 VDD VSS gf180mcu_fd_sc_mcu7t5v0__fill_1
X_07984_ _07984_/I _08649_/B VDD VSS gf180mcu_fd_sc_mcu7t5v0__inv_1
X_09723_ _09723_/I _11586_/D VDD VSS gf180mcu_fd_sc_mcu7t5v0__clkbuf_1
X_06935_ _06837_/Z _06938_/A2 _06935_/B _06936_/I VDD VSS gf180mcu_fd_sc_mcu7t5v0__oai21_1
X_09654_ _09121_/I _09672_/A2 _09654_/B _09655_/I VDD VSS gf180mcu_fd_sc_mcu7t5v0__oai21_1
X_06866_ _06866_/I _11085_/D VDD VSS gf180mcu_fd_sc_mcu7t5v0__clkbuf_1
XANTENNA__11543__RN _11686_/RN VDD VSS gf180mcu_fd_sc_mcu7t5v0__antenna
X_08605_ _08603_/Z _07844_/B _08605_/B _08606_/I VDD VSS gf180mcu_fd_sc_mcu7t5v0__oai21_1
X_05817_ _06217_/I _08839_/A2 _05818_/I VDD VSS gf180mcu_fd_sc_mcu7t5v0__nand2_1
XANTENNA__11215__CLK _11672_/CLK VDD VSS gf180mcu_fd_sc_mcu7t5v0__antenna
X_09585_ _09154_/Z _09597_/A2 _09585_/B _09586_/I VDD VSS gf180mcu_fd_sc_mcu7t5v0__oai21_1
XTAP_1129 VDD VSS gf180mcu_fd_sc_mcu7t5v0__filltie
XTAP_1118 VDD VSS gf180mcu_fd_sc_mcu7t5v0__filltie
XTAP_1107 VDD VSS gf180mcu_fd_sc_mcu7t5v0__filltie
X_06797_ _06797_/I _09121_/I VDD VSS gf180mcu_fd_sc_mcu7t5v0__buf_4
X_08536_ _08536_/I _08629_/A3 VDD VSS gf180mcu_fd_sc_mcu7t5v0__clkinv_1
X_05748_ _06394_/A1 input10/Z _05749_/A2 VDD VSS gf180mcu_fd_sc_mcu7t5v0__nand2_1
XFILLER_35_280 VDD VSS gf180mcu_fd_sc_mcu7t5v0__fill_1
XANTENNA__10814__A1 _10906_/A1 VDD VSS gf180mcu_fd_sc_mcu7t5v0__antenna
X_08467_ split8/Z _07722_/I _08467_/B _08468_/A1 VDD VSS gf180mcu_fd_sc_mcu7t5v0__aoi21_1
X_05679_ _05732_/I _05669_/I _05803_/A2 VDD VSS gf180mcu_fd_sc_mcu7t5v0__nor2_2
XFILLER_23_464 VDD VSS gf180mcu_fd_sc_mcu7t5v0__fillcap_32
X_08398_ _08398_/A1 _08397_/Z _11255_/Q _07297_/I _08399_/I VDD VSS gf180mcu_fd_sc_mcu7t5v0__oai22_1
X_07418_ _07418_/I _11249_/D VDD VSS gf180mcu_fd_sc_mcu7t5v0__clkbuf_1
XANTENNA__06494__A1 _06491_/B VDD VSS gf180mcu_fd_sc_mcu7t5v0__antenna
XANTENNA__11365__CLK _06705_/Z VDD VSS gf180mcu_fd_sc_mcu7t5v0__antenna
X_07349_ _07349_/A1 _06904_/Z _07354_/A2 VDD VSS gf180mcu_fd_sc_mcu7t5v0__nand2_1
XANTENNA__09432__A1 _09125_/Z VDD VSS gf180mcu_fd_sc_mcu7t5v0__antenna
XANTENNA__06192__I _06192_/I VDD VSS gf180mcu_fd_sc_mcu7t5v0__antenna
XANTENNA_output277_I _11076_/Q VDD VSS gf180mcu_fd_sc_mcu7t5v0__antenna
XANTENNA__10042__A2 _10042_/A2 VDD VSS gf180mcu_fd_sc_mcu7t5v0__antenna
X_10360_ _10360_/A1 _11142_/Q _10362_/A1 VDD VSS gf180mcu_fd_sc_mcu7t5v0__nand2_1
XFILLER_151_336 VDD VSS gf180mcu_fd_sc_mcu7t5v0__fill_1
X_10291_ _11514_/Q _10369_/A2 _10369_/B1 _11506_/Q _10294_/A1 VDD VSS gf180mcu_fd_sc_mcu7t5v0__aoi22_1
XFILLER_128_87 VDD VSS gf180mcu_fd_sc_mcu7t5v0__fill_1
X_09019_ _09019_/I _11363_/D VDD VSS gf180mcu_fd_sc_mcu7t5v0__clkbuf_1
XANTENNA__09735__A2 _11590_/Q VDD VSS gf180mcu_fd_sc_mcu7t5v0__antenna
XANTENNA__09499__A1 _09499_/A1 VDD VSS gf180mcu_fd_sc_mcu7t5v0__antenna
XANTENNA__11534__RN _11686_/RN VDD VSS gf180mcu_fd_sc_mcu7t5v0__antenna
XANTENNA__08171__A1 _08490_/A1 VDD VSS gf180mcu_fd_sc_mcu7t5v0__antenna
XFILLER_73_342 VDD VSS gf180mcu_fd_sc_mcu7t5v0__fill_1
XANTENNA__09671__A1 _09672_/A2 VDD VSS gf180mcu_fd_sc_mcu7t5v0__antenna
XFILLER_159_436 VDD VSS gf180mcu_fd_sc_mcu7t5v0__fill_1
XANTENNA__10805__B2 _11466_/Q VDD VSS gf180mcu_fd_sc_mcu7t5v0__antenna
XFILLER_14_442 VDD VSS gf180mcu_fd_sc_mcu7t5v0__fillcap_32
XANTENNA__10281__A2 _10359_/A2 VDD VSS gf180mcu_fd_sc_mcu7t5v0__antenna
X_11676_ _11676_/D input162/Z _06687_/A2 _11676_/Q VDD VSS gf180mcu_fd_sc_mcu7t5v0__dffrnq_1
X_10627_ _10627_/A1 _10627_/A2 _10627_/A3 _10627_/A4 _10645_/A2 VDD VSS gf180mcu_fd_sc_mcu7t5v0__nand4_1
XANTENNA__09974__A2 _10030_/A2 VDD VSS gf180mcu_fd_sc_mcu7t5v0__antenna
X_10558_ _10558_/A1 _10924_/A1 _10558_/B _10560_/A1 VDD VSS gf180mcu_fd_sc_mcu7t5v0__aoi21_1
XANTENNA__10033__A2 _10351_/A2 VDD VSS gf180mcu_fd_sc_mcu7t5v0__antenna
XANTENNA__07985__A1 _08355_/I VDD VSS gf180mcu_fd_sc_mcu7t5v0__antenna
XANTENNA__06788__A2 _05633_/B VDD VSS gf180mcu_fd_sc_mcu7t5v0__antenna
X_10489_ _11611_/Q _10915_/A1 _11571_/Q _10911_/A1 _10489_/C _10492_/A1 VDD VSS gf180mcu_fd_sc_mcu7t5v0__aoi221_1
XANTENNA__07737__A1 _07885_/I VDD VSS gf180mcu_fd_sc_mcu7t5v0__antenna
XFILLER_68_103 VDD VSS gf180mcu_fd_sc_mcu7t5v0__fillcap_8
XFILLER_110_266 VDD VSS gf180mcu_fd_sc_mcu7t5v0__fill_1
XANTENNA__11238__CLK _06705_/Z VDD VSS gf180mcu_fd_sc_mcu7t5v0__antenna
X_06720_ _06786_/A1 _06753_/A1 _06720_/B _06721_/I VDD VSS gf180mcu_fd_sc_mcu7t5v0__oai21_1
XANTENNA__08162__A1 _08162_/A1 VDD VSS gf180mcu_fd_sc_mcu7t5v0__antenna
XFILLER_94_90 VDD VSS gf180mcu_fd_sc_mcu7t5v0__fill_1
X_06651_ input80/Z input82/Z _06652_/A2 VDD VSS gf180mcu_fd_sc_mcu7t5v0__nand2_1
X_05602_ input58/Z _05515_/I _05603_/B VDD VSS gf180mcu_fd_sc_mcu7t5v0__nand2_1
XANTENNA__06712__A2 input68/Z VDD VSS gf180mcu_fd_sc_mcu7t5v0__antenna
X_06582_ input99/Z input98/Z _06583_/A4 VDD VSS gf180mcu_fd_sc_mcu7t5v0__nor2_1
X_09370_ _09370_/I _11473_/D VDD VSS gf180mcu_fd_sc_mcu7t5v0__clkbuf_1
XANTENNA__11388__CLK _06705_/Z VDD VSS gf180mcu_fd_sc_mcu7t5v0__antenna
X_08321_ _08321_/I _08593_/A2 VDD VSS gf180mcu_fd_sc_mcu7t5v0__clkinv_1
XANTENNA__09662__A1 _09672_/A2 VDD VSS gf180mcu_fd_sc_mcu7t5v0__antenna
X_05533_ _05539_/A1 _05533_/A2 _05537_/A1 VDD VSS gf180mcu_fd_sc_mcu7t5v0__nand2_1
X_08252_ _08281_/A1 _07885_/I _08528_/A3 VDD VSS gf180mcu_fd_sc_mcu7t5v0__nand2_1
XFILLER_137_119 VDD VSS gf180mcu_fd_sc_mcu7t5v0__fill_1
X_07203_ _11315_/Q _05924_/Z _07203_/B _07205_/A2 VDD VSS gf180mcu_fd_sc_mcu7t5v0__oai21_1
XFILLER_158_480 VDD VSS gf180mcu_fd_sc_mcu7t5v0__fill_1
X_08183_ _08183_/A1 _08183_/A2 _08189_/A1 VDD VSS gf180mcu_fd_sc_mcu7t5v0__nor2_1
XANTENNA__06228__A1 _07412_/A1 VDD VSS gf180mcu_fd_sc_mcu7t5v0__antenna
X_07134_ _11168_/Q _07137_/A1 VDD VSS gf180mcu_fd_sc_mcu7t5v0__clkinv_1
XFILLER_9_490 VDD VSS gf180mcu_fd_sc_mcu7t5v0__filltie
X_07065_ _07065_/I _11147_/D VDD VSS gf180mcu_fd_sc_mcu7t5v0__clkbuf_1
Xoutput231 _11097_/Q mgmt_gpio_out[28] VDD VSS gf180mcu_fd_sc_mcu7t5v0__clkbuf_4
Xoutput220 _11166_/Q mgmt_gpio_out[18] VDD VSS gf180mcu_fd_sc_mcu7t5v0__clkbuf_4
Xoutput253 _06721_/Z pad_flash_io0_do VDD VSS gf180mcu_fd_sc_mcu7t5v0__clkbuf_4
Xoutput242 _11184_/Q mgmt_gpio_out[3] VDD VSS gf180mcu_fd_sc_mcu7t5v0__clkbuf_4
X_06016_ _09144_/A1 _11407_/Q _06018_/A1 VDD VSS gf180mcu_fd_sc_mcu7t5v0__nand2_1
XANTENNA__07728__A1 _07593_/I VDD VSS gf180mcu_fd_sc_mcu7t5v0__antenna
Xoutput275 _11074_/Q pll_trim[11] VDD VSS gf180mcu_fd_sc_mcu7t5v0__clkbuf_4
Xoutput286 _11289_/Q pll_trim[21] VDD VSS gf180mcu_fd_sc_mcu7t5v0__clkbuf_4
Xoutput264 _11273_/Q pll_div[0] VDD VSS gf180mcu_fd_sc_mcu7t5v0__clkbuf_4
Xoutput297 _11071_/Q pll_trim[8] VDD VSS gf180mcu_fd_sc_mcu7t5v0__clkbuf_4