* NGSPICE file created from mgmt_protect.ext - technology: gf180mcuC

* Black-box entry subcircuit for gf180mcu_fd_sc_mcu7t5v0__filltie abstract view
.subckt gf180mcu_fd_sc_mcu7t5v0__filltie VDD VSS
.ends

* Black-box entry subcircuit for gf180mcu_fd_sc_mcu7t5v0__fill_1 abstract view
.subckt gf180mcu_fd_sc_mcu7t5v0__fill_1 VDD VSS
.ends

* Black-box entry subcircuit for gf180mcu_fd_sc_mcu7t5v0__antenna abstract view
.subckt gf180mcu_fd_sc_mcu7t5v0__antenna I VDD VSS
.ends

* Black-box entry subcircuit for gf180mcu_fd_sc_mcu7t5v0__nand2_4 abstract view
.subckt gf180mcu_fd_sc_mcu7t5v0__nand2_4 A1 A2 ZN VDD VSS
.ends

* Black-box entry subcircuit for gf180mcu_fd_sc_mcu7t5v0__fillcap_4 abstract view
.subckt gf180mcu_fd_sc_mcu7t5v0__fillcap_4 VDD VSS
.ends

* Black-box entry subcircuit for gf180mcu_fd_sc_mcu7t5v0__bufz_8 abstract view
.subckt gf180mcu_fd_sc_mcu7t5v0__bufz_8 EN I Z VDD VSS
.ends

* Black-box entry subcircuit for gf180mcu_fd_sc_mcu7t5v0__fillcap_32 abstract view
.subckt gf180mcu_fd_sc_mcu7t5v0__fillcap_32 VDD VSS
.ends

* Black-box entry subcircuit for gf180mcu_fd_sc_mcu7t5v0__buf_1 abstract view
.subckt gf180mcu_fd_sc_mcu7t5v0__buf_1 I Z VDD VSS
.ends

* Black-box entry subcircuit for gf180mcu_fd_sc_mcu7t5v0__inv_1 abstract view
.subckt gf180mcu_fd_sc_mcu7t5v0__inv_1 I ZN VDD VSS
.ends

* Black-box entry subcircuit for gf180mcu_fd_sc_mcu7t5v0__inv_8 abstract view
.subckt gf180mcu_fd_sc_mcu7t5v0__inv_8 I ZN VDD VSS
.ends

* Black-box entry subcircuit for gf180mcu_fd_sc_mcu7t5v0__fillcap_8 abstract view
.subckt gf180mcu_fd_sc_mcu7t5v0__fillcap_8 VDD VSS
.ends

* Black-box entry subcircuit for gf180mcu_fd_sc_mcu7t5v0__fillcap_16 abstract view
.subckt gf180mcu_fd_sc_mcu7t5v0__fillcap_16 VDD VSS
.ends

* Black-box entry subcircuit for gf180mcu_fd_sc_mcu7t5v0__endcap abstract view
.subckt gf180mcu_fd_sc_mcu7t5v0__endcap VDD VSS
.ends

* Black-box entry subcircuit for gf180mcu_fd_sc_mcu7t5v0__fillcap_64 abstract view
.subckt gf180mcu_fd_sc_mcu7t5v0__fillcap_64 VDD VSS
.ends

.subckt mgmt_protect VDD VSS caravel_clk caravel_clk2 caravel_rstn la_data_in_core[0]
+ la_data_in_core[10] la_data_in_core[11] la_data_in_core[12] la_data_in_core[13]
+ la_data_in_core[14] la_data_in_core[15] la_data_in_core[16] la_data_in_core[17]
+ la_data_in_core[18] la_data_in_core[19] la_data_in_core[1] la_data_in_core[20] la_data_in_core[21]
+ la_data_in_core[22] la_data_in_core[23] la_data_in_core[24] la_data_in_core[25]
+ la_data_in_core[26] la_data_in_core[27] la_data_in_core[28] la_data_in_core[29]
+ la_data_in_core[2] la_data_in_core[30] la_data_in_core[31] la_data_in_core[32] la_data_in_core[33]
+ la_data_in_core[34] la_data_in_core[35] la_data_in_core[36] la_data_in_core[37]
+ la_data_in_core[38] la_data_in_core[39] la_data_in_core[3] la_data_in_core[40] la_data_in_core[41]
+ la_data_in_core[42] la_data_in_core[43] la_data_in_core[44] la_data_in_core[45]
+ la_data_in_core[46] la_data_in_core[47] la_data_in_core[48] la_data_in_core[49]
+ la_data_in_core[4] la_data_in_core[50] la_data_in_core[51] la_data_in_core[52] la_data_in_core[53]
+ la_data_in_core[54] la_data_in_core[55] la_data_in_core[56] la_data_in_core[57]
+ la_data_in_core[58] la_data_in_core[59] la_data_in_core[5] la_data_in_core[60] la_data_in_core[61]
+ la_data_in_core[62] la_data_in_core[63] la_data_in_core[6] la_data_in_core[7] la_data_in_core[8]
+ la_data_in_core[9] la_data_in_mprj[0] la_data_in_mprj[10] la_data_in_mprj[11] la_data_in_mprj[12]
+ la_data_in_mprj[13] la_data_in_mprj[14] la_data_in_mprj[15] la_data_in_mprj[16]
+ la_data_in_mprj[17] la_data_in_mprj[18] la_data_in_mprj[19] la_data_in_mprj[1] la_data_in_mprj[20]
+ la_data_in_mprj[21] la_data_in_mprj[22] la_data_in_mprj[23] la_data_in_mprj[24]
+ la_data_in_mprj[25] la_data_in_mprj[26] la_data_in_mprj[27] la_data_in_mprj[28]
+ la_data_in_mprj[29] la_data_in_mprj[2] la_data_in_mprj[30] la_data_in_mprj[31] la_data_in_mprj[32]
+ la_data_in_mprj[33] la_data_in_mprj[34] la_data_in_mprj[35] la_data_in_mprj[36]
+ la_data_in_mprj[37] la_data_in_mprj[38] la_data_in_mprj[39] la_data_in_mprj[3] la_data_in_mprj[40]
+ la_data_in_mprj[41] la_data_in_mprj[42] la_data_in_mprj[43] la_data_in_mprj[44]
+ la_data_in_mprj[45] la_data_in_mprj[46] la_data_in_mprj[47] la_data_in_mprj[48]
+ la_data_in_mprj[49] la_data_in_mprj[4] la_data_in_mprj[50] la_data_in_mprj[51] la_data_in_mprj[52]
+ la_data_in_mprj[53] la_data_in_mprj[54] la_data_in_mprj[55] la_data_in_mprj[56]
+ la_data_in_mprj[57] la_data_in_mprj[58] la_data_in_mprj[59] la_data_in_mprj[5] la_data_in_mprj[60]
+ la_data_in_mprj[61] la_data_in_mprj[62] la_data_in_mprj[63] la_data_in_mprj[6] la_data_in_mprj[7]
+ la_data_in_mprj[8] la_data_in_mprj[9] la_data_out_core[0] la_data_out_core[10] la_data_out_core[11]
+ la_data_out_core[12] la_data_out_core[13] la_data_out_core[14] la_data_out_core[15]
+ la_data_out_core[16] la_data_out_core[17] la_data_out_core[18] la_data_out_core[19]
+ la_data_out_core[1] la_data_out_core[20] la_data_out_core[21] la_data_out_core[22]
+ la_data_out_core[23] la_data_out_core[24] la_data_out_core[25] la_data_out_core[26]
+ la_data_out_core[27] la_data_out_core[28] la_data_out_core[29] la_data_out_core[2]
+ la_data_out_core[30] la_data_out_core[31] la_data_out_core[32] la_data_out_core[33]
+ la_data_out_core[34] la_data_out_core[35] la_data_out_core[36] la_data_out_core[37]
+ la_data_out_core[38] la_data_out_core[39] la_data_out_core[3] la_data_out_core[40]
+ la_data_out_core[41] la_data_out_core[42] la_data_out_core[43] la_data_out_core[44]
+ la_data_out_core[45] la_data_out_core[46] la_data_out_core[47] la_data_out_core[48]
+ la_data_out_core[49] la_data_out_core[4] la_data_out_core[50] la_data_out_core[51]
+ la_data_out_core[52] la_data_out_core[53] la_data_out_core[54] la_data_out_core[55]
+ la_data_out_core[56] la_data_out_core[57] la_data_out_core[58] la_data_out_core[59]
+ la_data_out_core[5] la_data_out_core[60] la_data_out_core[61] la_data_out_core[62]
+ la_data_out_core[63] la_data_out_core[6] la_data_out_core[7] la_data_out_core[8]
+ la_data_out_core[9] la_data_out_mprj[0] la_data_out_mprj[10] la_data_out_mprj[11]
+ la_data_out_mprj[12] la_data_out_mprj[13] la_data_out_mprj[14] la_data_out_mprj[15]
+ la_data_out_mprj[16] la_data_out_mprj[17] la_data_out_mprj[18] la_data_out_mprj[19]
+ la_data_out_mprj[1] la_data_out_mprj[20] la_data_out_mprj[21] la_data_out_mprj[22]
+ la_data_out_mprj[23] la_data_out_mprj[24] la_data_out_mprj[25] la_data_out_mprj[26]
+ la_data_out_mprj[27] la_data_out_mprj[28] la_data_out_mprj[29] la_data_out_mprj[2]
+ la_data_out_mprj[30] la_data_out_mprj[31] la_data_out_mprj[32] la_data_out_mprj[33]
+ la_data_out_mprj[34] la_data_out_mprj[35] la_data_out_mprj[36] la_data_out_mprj[37]
+ la_data_out_mprj[38] la_data_out_mprj[39] la_data_out_mprj[3] la_data_out_mprj[40]
+ la_data_out_mprj[41] la_data_out_mprj[42] la_data_out_mprj[43] la_data_out_mprj[44]
+ la_data_out_mprj[45] la_data_out_mprj[46] la_data_out_mprj[47] la_data_out_mprj[48]
+ la_data_out_mprj[49] la_data_out_mprj[4] la_data_out_mprj[50] la_data_out_mprj[51]
+ la_data_out_mprj[52] la_data_out_mprj[53] la_data_out_mprj[54] la_data_out_mprj[55]
+ la_data_out_mprj[56] la_data_out_mprj[57] la_data_out_mprj[58] la_data_out_mprj[59]
+ la_data_out_mprj[5] la_data_out_mprj[60] la_data_out_mprj[61] la_data_out_mprj[62]
+ la_data_out_mprj[63] la_data_out_mprj[6] la_data_out_mprj[7] la_data_out_mprj[8]
+ la_data_out_mprj[9] la_iena_mprj[0] la_iena_mprj[10] la_iena_mprj[11] la_iena_mprj[12]
+ la_iena_mprj[13] la_iena_mprj[14] la_iena_mprj[15] la_iena_mprj[16] la_iena_mprj[17]
+ la_iena_mprj[18] la_iena_mprj[19] la_iena_mprj[1] la_iena_mprj[20] la_iena_mprj[21]
+ la_iena_mprj[22] la_iena_mprj[23] la_iena_mprj[24] la_iena_mprj[25] la_iena_mprj[26]
+ la_iena_mprj[27] la_iena_mprj[28] la_iena_mprj[29] la_iena_mprj[2] la_iena_mprj[30]
+ la_iena_mprj[31] la_iena_mprj[32] la_iena_mprj[33] la_iena_mprj[34] la_iena_mprj[35]
+ la_iena_mprj[36] la_iena_mprj[37] la_iena_mprj[38] la_iena_mprj[39] la_iena_mprj[3]
+ la_iena_mprj[40] la_iena_mprj[41] la_iena_mprj[42] la_iena_mprj[43] la_iena_mprj[44]
+ la_iena_mprj[45] la_iena_mprj[46] la_iena_mprj[47] la_iena_mprj[48] la_iena_mprj[49]
+ la_iena_mprj[4] la_iena_mprj[50] la_iena_mprj[51] la_iena_mprj[52] la_iena_mprj[53]
+ la_iena_mprj[54] la_iena_mprj[55] la_iena_mprj[56] la_iena_mprj[57] la_iena_mprj[58]
+ la_iena_mprj[59] la_iena_mprj[5] la_iena_mprj[60] la_iena_mprj[61] la_iena_mprj[62]
+ la_iena_mprj[63] la_iena_mprj[6] la_iena_mprj[7] la_iena_mprj[8] la_iena_mprj[9]
+ la_oenb_core[0] la_oenb_core[10] la_oenb_core[11] la_oenb_core[12] la_oenb_core[13]
+ la_oenb_core[14] la_oenb_core[15] la_oenb_core[16] la_oenb_core[17] la_oenb_core[18]
+ la_oenb_core[19] la_oenb_core[1] la_oenb_core[20] la_oenb_core[21] la_oenb_core[22]
+ la_oenb_core[23] la_oenb_core[24] la_oenb_core[25] la_oenb_core[26] la_oenb_core[27]
+ la_oenb_core[28] la_oenb_core[29] la_oenb_core[2] la_oenb_core[30] la_oenb_core[31]
+ la_oenb_core[32] la_oenb_core[33] la_oenb_core[34] la_oenb_core[35] la_oenb_core[36]
+ la_oenb_core[37] la_oenb_core[38] la_oenb_core[39] la_oenb_core[3] la_oenb_core[40]
+ la_oenb_core[41] la_oenb_core[42] la_oenb_core[43] la_oenb_core[44] la_oenb_core[45]
+ la_oenb_core[46] la_oenb_core[47] la_oenb_core[48] la_oenb_core[49] la_oenb_core[4]
+ la_oenb_core[50] la_oenb_core[51] la_oenb_core[52] la_oenb_core[53] la_oenb_core[54]
+ la_oenb_core[55] la_oenb_core[56] la_oenb_core[57] la_oenb_core[58] la_oenb_core[59]
+ la_oenb_core[5] la_oenb_core[60] la_oenb_core[61] la_oenb_core[62] la_oenb_core[63]
+ la_oenb_core[6] la_oenb_core[7] la_oenb_core[8] la_oenb_core[9] la_oenb_mprj[0]
+ la_oenb_mprj[10] la_oenb_mprj[11] la_oenb_mprj[12] la_oenb_mprj[13] la_oenb_mprj[14]
+ la_oenb_mprj[15] la_oenb_mprj[16] la_oenb_mprj[17] la_oenb_mprj[18] la_oenb_mprj[19]
+ la_oenb_mprj[1] la_oenb_mprj[20] la_oenb_mprj[21] la_oenb_mprj[22] la_oenb_mprj[23]
+ la_oenb_mprj[24] la_oenb_mprj[25] la_oenb_mprj[26] la_oenb_mprj[27] la_oenb_mprj[28]
+ la_oenb_mprj[29] la_oenb_mprj[2] la_oenb_mprj[30] la_oenb_mprj[31] la_oenb_mprj[32]
+ la_oenb_mprj[33] la_oenb_mprj[34] la_oenb_mprj[35] la_oenb_mprj[36] la_oenb_mprj[37]
+ la_oenb_mprj[38] la_oenb_mprj[39] la_oenb_mprj[3] la_oenb_mprj[40] la_oenb_mprj[41]
+ la_oenb_mprj[42] la_oenb_mprj[43] la_oenb_mprj[44] la_oenb_mprj[45] la_oenb_mprj[46]
+ la_oenb_mprj[47] la_oenb_mprj[48] la_oenb_mprj[49] la_oenb_mprj[4] la_oenb_mprj[50]
+ la_oenb_mprj[51] la_oenb_mprj[52] la_oenb_mprj[53] la_oenb_mprj[54] la_oenb_mprj[55]
+ la_oenb_mprj[56] la_oenb_mprj[57] la_oenb_mprj[58] la_oenb_mprj[59] la_oenb_mprj[5]
+ la_oenb_mprj[60] la_oenb_mprj[61] la_oenb_mprj[62] la_oenb_mprj[63] la_oenb_mprj[6]
+ la_oenb_mprj[7] la_oenb_mprj[8] la_oenb_mprj[9] mprj_ack_i_core mprj_ack_i_user
+ mprj_adr_o_core[0] mprj_adr_o_core[10] mprj_adr_o_core[11] mprj_adr_o_core[12] mprj_adr_o_core[13]
+ mprj_adr_o_core[14] mprj_adr_o_core[15] mprj_adr_o_core[16] mprj_adr_o_core[17]
+ mprj_adr_o_core[18] mprj_adr_o_core[19] mprj_adr_o_core[1] mprj_adr_o_core[20] mprj_adr_o_core[21]
+ mprj_adr_o_core[22] mprj_adr_o_core[23] mprj_adr_o_core[24] mprj_adr_o_core[25]
+ mprj_adr_o_core[26] mprj_adr_o_core[27] mprj_adr_o_core[28] mprj_adr_o_core[29]
+ mprj_adr_o_core[2] mprj_adr_o_core[30] mprj_adr_o_core[31] mprj_adr_o_core[3] mprj_adr_o_core[4]
+ mprj_adr_o_core[5] mprj_adr_o_core[6] mprj_adr_o_core[7] mprj_adr_o_core[8] mprj_adr_o_core[9]
+ mprj_adr_o_user[0] mprj_adr_o_user[10] mprj_adr_o_user[11] mprj_adr_o_user[12] mprj_adr_o_user[13]
+ mprj_adr_o_user[14] mprj_adr_o_user[15] mprj_adr_o_user[16] mprj_adr_o_user[17]
+ mprj_adr_o_user[18] mprj_adr_o_user[19] mprj_adr_o_user[1] mprj_adr_o_user[20] mprj_adr_o_user[21]
+ mprj_adr_o_user[22] mprj_adr_o_user[23] mprj_adr_o_user[24] mprj_adr_o_user[25]
+ mprj_adr_o_user[26] mprj_adr_o_user[27] mprj_adr_o_user[28] mprj_adr_o_user[29]
+ mprj_adr_o_user[2] mprj_adr_o_user[30] mprj_adr_o_user[31] mprj_adr_o_user[3] mprj_adr_o_user[4]
+ mprj_adr_o_user[5] mprj_adr_o_user[6] mprj_adr_o_user[7] mprj_adr_o_user[8] mprj_adr_o_user[9]
+ mprj_cyc_o_core mprj_cyc_o_user mprj_dat_i_core[0] mprj_dat_i_core[10] mprj_dat_i_core[11]
+ mprj_dat_i_core[12] mprj_dat_i_core[13] mprj_dat_i_core[14] mprj_dat_i_core[15]
+ mprj_dat_i_core[16] mprj_dat_i_core[17] mprj_dat_i_core[18] mprj_dat_i_core[19]
+ mprj_dat_i_core[1] mprj_dat_i_core[20] mprj_dat_i_core[21] mprj_dat_i_core[22] mprj_dat_i_core[23]
+ mprj_dat_i_core[24] mprj_dat_i_core[25] mprj_dat_i_core[26] mprj_dat_i_core[27]
+ mprj_dat_i_core[28] mprj_dat_i_core[29] mprj_dat_i_core[2] mprj_dat_i_core[30] mprj_dat_i_core[31]
+ mprj_dat_i_core[3] mprj_dat_i_core[4] mprj_dat_i_core[5] mprj_dat_i_core[6] mprj_dat_i_core[7]
+ mprj_dat_i_core[8] mprj_dat_i_core[9] mprj_dat_i_user[0] mprj_dat_i_user[10] mprj_dat_i_user[11]
+ mprj_dat_i_user[12] mprj_dat_i_user[13] mprj_dat_i_user[14] mprj_dat_i_user[15]
+ mprj_dat_i_user[16] mprj_dat_i_user[17] mprj_dat_i_user[18] mprj_dat_i_user[19]
+ mprj_dat_i_user[1] mprj_dat_i_user[20] mprj_dat_i_user[21] mprj_dat_i_user[22] mprj_dat_i_user[23]
+ mprj_dat_i_user[24] mprj_dat_i_user[25] mprj_dat_i_user[26] mprj_dat_i_user[27]
+ mprj_dat_i_user[28] mprj_dat_i_user[29] mprj_dat_i_user[2] mprj_dat_i_user[30] mprj_dat_i_user[31]
+ mprj_dat_i_user[3] mprj_dat_i_user[4] mprj_dat_i_user[5] mprj_dat_i_user[6] mprj_dat_i_user[7]
+ mprj_dat_i_user[8] mprj_dat_i_user[9] mprj_dat_o_core[0] mprj_dat_o_core[10] mprj_dat_o_core[11]
+ mprj_dat_o_core[12] mprj_dat_o_core[13] mprj_dat_o_core[14] mprj_dat_o_core[15]
+ mprj_dat_o_core[16] mprj_dat_o_core[17] mprj_dat_o_core[18] mprj_dat_o_core[19]
+ mprj_dat_o_core[1] mprj_dat_o_core[20] mprj_dat_o_core[21] mprj_dat_o_core[22] mprj_dat_o_core[23]
+ mprj_dat_o_core[24] mprj_dat_o_core[25] mprj_dat_o_core[26] mprj_dat_o_core[27]
+ mprj_dat_o_core[28] mprj_dat_o_core[29] mprj_dat_o_core[2] mprj_dat_o_core[30] mprj_dat_o_core[31]
+ mprj_dat_o_core[3] mprj_dat_o_core[4] mprj_dat_o_core[5] mprj_dat_o_core[6] mprj_dat_o_core[7]
+ mprj_dat_o_core[8] mprj_dat_o_core[9] mprj_dat_o_user[0] mprj_dat_o_user[10] mprj_dat_o_user[11]
+ mprj_dat_o_user[12] mprj_dat_o_user[13] mprj_dat_o_user[14] mprj_dat_o_user[15]
+ mprj_dat_o_user[16] mprj_dat_o_user[17] mprj_dat_o_user[18] mprj_dat_o_user[19]
+ mprj_dat_o_user[1] mprj_dat_o_user[20] mprj_dat_o_user[21] mprj_dat_o_user[22] mprj_dat_o_user[23]
+ mprj_dat_o_user[24] mprj_dat_o_user[25] mprj_dat_o_user[26] mprj_dat_o_user[27]
+ mprj_dat_o_user[28] mprj_dat_o_user[29] mprj_dat_o_user[2] mprj_dat_o_user[30] mprj_dat_o_user[31]
+ mprj_dat_o_user[3] mprj_dat_o_user[4] mprj_dat_o_user[5] mprj_dat_o_user[6] mprj_dat_o_user[7]
+ mprj_dat_o_user[8] mprj_dat_o_user[9] mprj_iena_wb mprj_sel_o_core[0] mprj_sel_o_core[1]
+ mprj_sel_o_core[2] mprj_sel_o_core[3] mprj_sel_o_user[0] mprj_sel_o_user[1] mprj_sel_o_user[2]
+ mprj_sel_o_user[3] mprj_stb_o_core mprj_stb_o_user mprj_we_o_core mprj_we_o_user
+ user_clock user_clock2 user_irq[0] user_irq[1] user_irq[2] user_irq_core[0] user_irq_core[1]
+ user_irq_core[2] user_irq_ena[0] user_irq_ena[1] user_irq_ena[2] user_reset
XTAP_199 VDD VSS gf180mcu_fd_sc_mcu7t5v0__filltie
XTAP_188 VDD VSS gf180mcu_fd_sc_mcu7t5v0__filltie
XTAP_177 VDD VSS gf180mcu_fd_sc_mcu7t5v0__filltie
XFILLER_3_1799 VDD VSS gf180mcu_fd_sc_mcu7t5v0__filltie
XFILLER_3_1744 VDD VSS gf180mcu_fd_sc_mcu7t5v0__filltie
XFILLER_2_538 VDD VSS gf180mcu_fd_sc_mcu7t5v0__fill_1
XANTENNA__164__I mprj_dat_o_core[3] VDD VSS gf180mcu_fd_sc_mcu7t5v0__antenna
Xuser_wb_dat_gates\[8\] mprj_dat_i_user[8] mprj_iena_wb user_wb_dat_gates\[8\]/ZN
+ VDD VSS gf180mcu_fd_sc_mcu7t5v0__nand2_4
XFILLER_5_310 VDD VSS gf180mcu_fd_sc_mcu7t5v0__fillcap_4
Xla_buf\[36\] _011_/ZN la_data_out_mprj[36] la_data_in_core[36] VDD VSS gf180mcu_fd_sc_mcu7t5v0__bufz_8
XFILLER_6_899 VDD VSS gf180mcu_fd_sc_mcu7t5v0__fillcap_4
XFILLER_3_34 VDD VSS gf180mcu_fd_sc_mcu7t5v0__fill_1
XFILLER_1_582 VDD VSS gf180mcu_fd_sc_mcu7t5v0__filltie
XFILLER_0_1906 VDD VSS gf180mcu_fd_sc_mcu7t5v0__filltie
XANTENNA__074__I la_oenb_mprj[10] VDD VSS gf180mcu_fd_sc_mcu7t5v0__antenna
Xuser_to_mprj_in_gates\[25\] la_data_out_core[25] la_iena_mprj[25] user_to_mprj_in_gates\[25\]/ZN
+ VDD VSS gf180mcu_fd_sc_mcu7t5v0__nand2_4
XANTENNA_user_wb_dat_gates\[16\]_A2 mprj_iena_wb VDD VSS gf180mcu_fd_sc_mcu7t5v0__antenna
XFILLER_6_107 VDD VSS gf180mcu_fd_sc_mcu7t5v0__fillcap_32
XFILLER_2_335 VDD VSS gf180mcu_fd_sc_mcu7t5v0__fill_1
XFILLER_2_379 VDD VSS gf180mcu_fd_sc_mcu7t5v0__fill_1
XFILLER_3_814 VDD VSS gf180mcu_fd_sc_mcu7t5v0__filltie
XFILLER_3_803 VDD VSS gf180mcu_fd_sc_mcu7t5v0__filltie
XFILLER_3_858 VDD VSS gf180mcu_fd_sc_mcu7t5v0__fill_1
XANTENNA__159__I mprj_adr_o_core[31] VDD VSS gf180mcu_fd_sc_mcu7t5v0__antenna
XFILLER_2_1084 VDD VSS gf180mcu_fd_sc_mcu7t5v0__filltie
XFILLER_5_151 VDD VSS gf180mcu_fd_sc_mcu7t5v0__filltie
XFILLER_5_140 VDD VSS gf180mcu_fd_sc_mcu7t5v0__filltie
XFILLER_2_891 VDD VSS gf180mcu_fd_sc_mcu7t5v0__fillcap_4
XANTENNA__069__I la_oenb_mprj[5] VDD VSS gf180mcu_fd_sc_mcu7t5v0__antenna
XFILLER_4_1872 VDD VSS gf180mcu_fd_sc_mcu7t5v0__filltie
XFILLER_0_1714 VDD VSS gf180mcu_fd_sc_mcu7t5v0__fill_1
XFILLER_0_1747 VDD VSS gf180mcu_fd_sc_mcu7t5v0__filltie
XANTENNA_user_to_mprj_in_gates\[17\]_A2 la_iena_mprj[17] VDD VSS gf180mcu_fd_sc_mcu7t5v0__antenna
XFILLER_5_1669 VDD VSS gf180mcu_fd_sc_mcu7t5v0__filltie
XFILLER_0_839 VDD VSS gf180mcu_fd_sc_mcu7t5v0__fill_1
X_200_ caravel_clk2 user_clock2 VDD VSS gf180mcu_fd_sc_mcu7t5v0__buf_1
XANTENNA_user_to_mprj_in_gates\[1\]_A2 la_iena_mprj[1] VDD VSS gf180mcu_fd_sc_mcu7t5v0__antenna
XFILLER_3_1393 VDD VSS gf180mcu_fd_sc_mcu7t5v0__filltie
X_062_ la_oenb_mprj[23] _062_/ZN VDD VSS gf180mcu_fd_sc_mcu7t5v0__inv_1
X_131_ mprj_adr_o_core[3] mprj_adr_o_user[3] VDD VSS gf180mcu_fd_sc_mcu7t5v0__buf_1
XFILLER_2_110 VDD VSS gf180mcu_fd_sc_mcu7t5v0__filltie
XFILLER_4_1102 VDD VSS gf180mcu_fd_sc_mcu7t5v0__fill_1
XFILLER_0_68 VDD VSS gf180mcu_fd_sc_mcu7t5v0__filltie
XANTENNA_user_wb_dat_gates\[7\]_A1 mprj_dat_i_user[7] VDD VSS gf180mcu_fd_sc_mcu7t5v0__antenna
XFILLER_6_460 VDD VSS gf180mcu_fd_sc_mcu7t5v0__fillcap_4
XFILLER_0_625 VDD VSS gf180mcu_fd_sc_mcu7t5v0__fill_1
XFILLER_5_1411 VDD VSS gf180mcu_fd_sc_mcu7t5v0__filltie
XANTENNA_user_wb_dat_gates\[29\]_A1 mprj_dat_i_user[29] VDD VSS gf180mcu_fd_sc_mcu7t5v0__antenna
XFILLER_4_953 VDD VSS gf180mcu_fd_sc_mcu7t5v0__fillcap_4
XFILLER_4_920 VDD VSS gf180mcu_fd_sc_mcu7t5v0__fill_1
X_045_ la_oenb_mprj[6] _045_/ZN VDD VSS gf180mcu_fd_sc_mcu7t5v0__inv_1
XANTENNA__172__I mprj_dat_o_core[11] VDD VSS gf180mcu_fd_sc_mcu7t5v0__antenna
X_114_ la_oenb_mprj[50] la_oenb_core[50] VDD VSS gf180mcu_fd_sc_mcu7t5v0__buf_1
XFILLER_6_1208 VDD VSS gf180mcu_fd_sc_mcu7t5v0__filltie
XFILLER_1_1886 VDD VSS gf180mcu_fd_sc_mcu7t5v0__filltie
Xuser_to_mprj_in_buffers\[62\] user_to_mprj_in_gates\[62\]/ZN la_data_in_mprj[62]
+ VDD VSS gf180mcu_fd_sc_mcu7t5v0__inv_8
Xuser_wb_dat_gates\[20\] mprj_dat_i_user[20] mprj_iena_wb user_wb_dat_gates\[20\]/ZN
+ VDD VSS gf180mcu_fd_sc_mcu7t5v0__nand2_4
XANTENNA__082__I la_oenb_mprj[18] VDD VSS gf180mcu_fd_sc_mcu7t5v0__antenna
XFILLER_6_1797 VDD VSS gf180mcu_fd_sc_mcu7t5v0__filltie
XFILLER_6_1731 VDD VSS gf180mcu_fd_sc_mcu7t5v0__filltie
XANTENNA_user_to_mprj_in_buffers\[50\]_I user_to_mprj_in_gates\[50\]/ZN VDD VSS gf180mcu_fd_sc_mcu7t5v0__antenna
XANTENNA_user_to_mprj_in_buffers\[41\]_I user_to_mprj_in_gates\[41\]/ZN VDD VSS gf180mcu_fd_sc_mcu7t5v0__antenna
XFILLER_0_488 VDD VSS gf180mcu_fd_sc_mcu7t5v0__filltie
XFILLER_0_433 VDD VSS gf180mcu_fd_sc_mcu7t5v0__filltie
XANTENNA_la_buf\[30\]_EN _005_/ZN VDD VSS gf180mcu_fd_sc_mcu7t5v0__antenna
XFILLER_5_1274 VDD VSS gf180mcu_fd_sc_mcu7t5v0__fillcap_4
XANTENNA__167__I mprj_dat_o_core[6] VDD VSS gf180mcu_fd_sc_mcu7t5v0__antenna
XFILLER_6_34 VDD VSS gf180mcu_fd_sc_mcu7t5v0__fill_1
XFILLER_6_89 VDD VSS gf180mcu_fd_sc_mcu7t5v0__filltie
X_028_ la_oenb_mprj[53] _028_/ZN VDD VSS gf180mcu_fd_sc_mcu7t5v0__inv_1
XFILLER_4_750 VDD VSS gf180mcu_fd_sc_mcu7t5v0__filltie
XFILLER_3_282 VDD VSS gf180mcu_fd_sc_mcu7t5v0__filltie
XFILLER_6_1049 VDD VSS gf180mcu_fd_sc_mcu7t5v0__fill_1
XFILLER_3_1937 VDD VSS gf180mcu_fd_sc_mcu7t5v0__fill_1
XFILLER_3_1904 VDD VSS gf180mcu_fd_sc_mcu7t5v0__filltie
XANTENNA_user_to_mprj_in_buffers\[32\]_I user_to_mprj_in_gates\[32\]/ZN VDD VSS gf180mcu_fd_sc_mcu7t5v0__antenna
Xuser_to_mprj_in_gates\[55\] la_data_out_core[55] la_iena_mprj[55] user_to_mprj_in_gates\[55\]/ZN
+ VDD VSS gf180mcu_fd_sc_mcu7t5v0__nand2_4
XANTENNA__077__I la_oenb_mprj[13] VDD VSS gf180mcu_fd_sc_mcu7t5v0__antenna
XANTENNA_user_to_mprj_in_buffers\[23\]_I user_to_mprj_in_gates\[23\]/ZN VDD VSS gf180mcu_fd_sc_mcu7t5v0__antenna
XFILLER_2_1403 VDD VSS gf180mcu_fd_sc_mcu7t5v0__filltie
XFILLER_2_1447 VDD VSS gf180mcu_fd_sc_mcu7t5v0__filltie
XANTENNA_la_buf\[63\]_I la_data_out_mprj[63] VDD VSS gf180mcu_fd_sc_mcu7t5v0__antenna
XFILLER_5_1060 VDD VSS gf180mcu_fd_sc_mcu7t5v0__fillcap_4
XFILLER_1_775 VDD VSS gf180mcu_fd_sc_mcu7t5v0__fillcap_4
XANTENNA_user_to_mprj_in_buffers\[14\]_I user_to_mprj_in_gates\[14\]/ZN VDD VSS gf180mcu_fd_sc_mcu7t5v0__antenna
Xuser_to_mprj_in_buffers\[25\] user_to_mprj_in_gates\[25\]/ZN la_data_in_mprj[25]
+ VDD VSS gf180mcu_fd_sc_mcu7t5v0__inv_8
XANTENNA_la_buf\[54\]_I la_data_out_mprj[54] VDD VSS gf180mcu_fd_sc_mcu7t5v0__antenna
XTAP_189 VDD VSS gf180mcu_fd_sc_mcu7t5v0__filltie
XTAP_178 VDD VSS gf180mcu_fd_sc_mcu7t5v0__filltie
XTAP_167 VDD VSS gf180mcu_fd_sc_mcu7t5v0__filltie
XFILLER_4_591 VDD VSS gf180mcu_fd_sc_mcu7t5v0__filltie
XTAP_156 VDD VSS gf180mcu_fd_sc_mcu7t5v0__filltie
XANTENNA_user_to_mprj_in_gates\[50\]_A2 la_iena_mprj[50] VDD VSS gf180mcu_fd_sc_mcu7t5v0__antenna
XTAP_101 VDD VSS gf180mcu_fd_sc_mcu7t5v0__filltie
XTAP_112 VDD VSS gf180mcu_fd_sc_mcu7t5v0__filltie
XTAP_123 VDD VSS gf180mcu_fd_sc_mcu7t5v0__filltie
XTAP_134 VDD VSS gf180mcu_fd_sc_mcu7t5v0__filltie
XTAP_145 VDD VSS gf180mcu_fd_sc_mcu7t5v0__filltie
XFILLER_3_1756 VDD VSS gf180mcu_fd_sc_mcu7t5v0__filltie
XFILLER_3_1712 VDD VSS gf180mcu_fd_sc_mcu7t5v0__fillcap_4
XANTENNA_la_buf\[45\]_I la_data_out_mprj[45] VDD VSS gf180mcu_fd_sc_mcu7t5v0__antenna
XFILLER_2_517 VDD VSS gf180mcu_fd_sc_mcu7t5v0__fill_1
XFILLER_2_1233 VDD VSS gf180mcu_fd_sc_mcu7t5v0__filltie
XANTENNA_la_buf\[36\]_I la_data_out_mprj[36] VDD VSS gf180mcu_fd_sc_mcu7t5v0__antenna
Xla_buf\[29\] _004_/ZN la_data_out_mprj[29] la_data_in_core[29] VDD VSS gf180mcu_fd_sc_mcu7t5v0__bufz_8
XANTENNA__180__I mprj_dat_o_core[19] VDD VSS gf180mcu_fd_sc_mcu7t5v0__antenna
XFILLER_3_79 VDD VSS gf180mcu_fd_sc_mcu7t5v0__fill_1
XANTENNA_la_buf\[27\]_I la_data_out_mprj[27] VDD VSS gf180mcu_fd_sc_mcu7t5v0__antenna
Xuser_to_mprj_in_gates\[18\] la_data_out_core[18] la_iena_mprj[18] user_to_mprj_in_gates\[18\]/ZN
+ VDD VSS gf180mcu_fd_sc_mcu7t5v0__nand2_4
XANTENNA__090__I la_oenb_mprj[26] VDD VSS gf180mcu_fd_sc_mcu7t5v0__antenna
Xuser_wb_dat_buffers\[28\] user_wb_dat_gates\[28\]/ZN mprj_dat_i_core[28] VDD VSS
+ gf180mcu_fd_sc_mcu7t5v0__inv_8
XANTENNA_la_buf\[18\]_I la_data_out_mprj[18] VDD VSS gf180mcu_fd_sc_mcu7t5v0__antenna
XFILLER_2_303 VDD VSS gf180mcu_fd_sc_mcu7t5v0__filltie
XFILLER_4_1339 VDD VSS gf180mcu_fd_sc_mcu7t5v0__filltie
XANTENNA_user_to_mprj_in_gates\[40\]_A1 la_data_out_core[40] VDD VSS gf180mcu_fd_sc_mcu7t5v0__antenna
XANTENNA__175__I mprj_dat_o_core[14] VDD VSS gf180mcu_fd_sc_mcu7t5v0__antenna
XFILLER_6_697 VDD VSS gf180mcu_fd_sc_mcu7t5v0__filltie
XFILLER_6_686 VDD VSS gf180mcu_fd_sc_mcu7t5v0__fill_1
XFILLER_6_675 VDD VSS gf180mcu_fd_sc_mcu7t5v0__fill_1
XFILLER_6_664 VDD VSS gf180mcu_fd_sc_mcu7t5v0__fill_1
XFILLER_5_174 VDD VSS gf180mcu_fd_sc_mcu7t5v0__fillcap_8
XFILLER_5_163 VDD VSS gf180mcu_fd_sc_mcu7t5v0__fill_1
XANTENNA__085__I la_oenb_mprj[21] VDD VSS gf180mcu_fd_sc_mcu7t5v0__antenna
XFILLER_0_1704 VDD VSS gf180mcu_fd_sc_mcu7t5v0__filltie
Xuser_wb_dat_buffers\[2\] user_wb_dat_gates\[2\]/ZN mprj_dat_i_core[2] VDD VSS gf180mcu_fd_sc_mcu7t5v0__inv_8
XFILLER_0_807 VDD VSS gf180mcu_fd_sc_mcu7t5v0__fillcap_4
XFILLER_5_1626 VDD VSS gf180mcu_fd_sc_mcu7t5v0__filltie
XANTENNA_user_to_mprj_in_gates\[63\]_A1 la_data_out_core[63] VDD VSS gf180mcu_fd_sc_mcu7t5v0__antenna
X_130_ mprj_adr_o_core[2] mprj_adr_o_user[2] VDD VSS gf180mcu_fd_sc_mcu7t5v0__buf_1
XFILLER_3_601 VDD VSS gf180mcu_fd_sc_mcu7t5v0__filltie
X_061_ la_oenb_mprj[22] _061_/ZN VDD VSS gf180mcu_fd_sc_mcu7t5v0__inv_1
XFILLER_3_2 VDD VSS gf180mcu_fd_sc_mcu7t5v0__fillcap_32
XFILLER_4_1169 VDD VSS gf180mcu_fd_sc_mcu7t5v0__filltie
XANTENNA_user_wb_dat_gates\[7\]_A2 mprj_iena_wb VDD VSS gf180mcu_fd_sc_mcu7t5v0__antenna
XFILLER_6_494 VDD VSS gf180mcu_fd_sc_mcu7t5v0__filltie
XFILLER_6_1924 VDD VSS gf180mcu_fd_sc_mcu7t5v0__fill_1
XFILLER_6_1902 VDD VSS gf180mcu_fd_sc_mcu7t5v0__filltie
XFILLER_5_1434 VDD VSS gf180mcu_fd_sc_mcu7t5v0__fillcap_4
XFILLER_5_1489 VDD VSS gf180mcu_fd_sc_mcu7t5v0__filltie
X_113_ la_oenb_mprj[49] la_oenb_core[49] VDD VSS gf180mcu_fd_sc_mcu7t5v0__buf_1
XANTENNA_user_wb_dat_gates\[29\]_A2 mprj_iena_wb VDD VSS gf180mcu_fd_sc_mcu7t5v0__antenna
Xla_buf\[7\] _046_/ZN la_data_out_mprj[7] la_data_in_core[7] VDD VSS gf180mcu_fd_sc_mcu7t5v0__bufz_8
XFILLER_4_976 VDD VSS gf180mcu_fd_sc_mcu7t5v0__filltie
XFILLER_4_910 VDD VSS gf180mcu_fd_sc_mcu7t5v0__filltie
X_044_ la_oenb_mprj[5] _044_/ZN VDD VSS gf180mcu_fd_sc_mcu7t5v0__inv_1
Xla_buf\[11\] _050_/ZN la_data_out_mprj[11] la_data_in_core[11] VDD VSS gf180mcu_fd_sc_mcu7t5v0__bufz_8
Xuser_to_mprj_in_buffers\[55\] user_to_mprj_in_gates\[55\]/ZN la_data_in_mprj[55]
+ VDD VSS gf180mcu_fd_sc_mcu7t5v0__inv_8
XFILLER_1_1843 VDD VSS gf180mcu_fd_sc_mcu7t5v0__filltie
XFILLER_1_1898 VDD VSS gf180mcu_fd_sc_mcu7t5v0__filltie
Xuser_wb_dat_gates\[13\] mprj_dat_i_user[13] mprj_iena_wb user_wb_dat_gates\[13\]/ZN
+ VDD VSS gf180mcu_fd_sc_mcu7t5v0__nand2_4
XFILLER_6_1710 VDD VSS gf180mcu_fd_sc_mcu7t5v0__fillcap_4
Xuser_wb_dat_buffers\[10\] user_wb_dat_gates\[10\]/ZN mprj_dat_i_core[10] VDD VSS
+ gf180mcu_fd_sc_mcu7t5v0__inv_8
XFILLER_0_1353 VDD VSS gf180mcu_fd_sc_mcu7t5v0__filltie
XFILLER_5_718 VDD VSS gf180mcu_fd_sc_mcu7t5v0__filltie
XFILLER_4_217 VDD VSS gf180mcu_fd_sc_mcu7t5v0__filltie
XFILLER_1_913 VDD VSS gf180mcu_fd_sc_mcu7t5v0__fillcap_8
XFILLER_1_957 VDD VSS gf180mcu_fd_sc_mcu7t5v0__fillcap_16
XFILLER_0_467 VDD VSS gf180mcu_fd_sc_mcu7t5v0__filltie
XFILLER_1_1117 VDD VSS gf180mcu_fd_sc_mcu7t5v0__fill_1
Xla_buf\[59\] _034_/ZN la_data_out_mprj[59] la_data_in_core[59] VDD VSS gf180mcu_fd_sc_mcu7t5v0__bufz_8
XANTENNA__183__I mprj_dat_o_core[22] VDD VSS gf180mcu_fd_sc_mcu7t5v0__antenna
XFILLER_6_68 VDD VSS gf180mcu_fd_sc_mcu7t5v0__filltie
XFILLER_4_784 VDD VSS gf180mcu_fd_sc_mcu7t5v0__filltie
XFILLER_3_294 VDD VSS gf180mcu_fd_sc_mcu7t5v0__filltie
X_027_ la_oenb_mprj[52] _027_/ZN VDD VSS gf180mcu_fd_sc_mcu7t5v0__inv_1
XFILLER_6_1039 VDD VSS gf180mcu_fd_sc_mcu7t5v0__fillcap_8
XFILLER_3_1916 VDD VSS gf180mcu_fd_sc_mcu7t5v0__fill_1
Xuser_to_mprj_in_gates\[48\] la_data_out_core[48] la_iena_mprj[48] user_to_mprj_in_gates\[48\]/ZN
+ VDD VSS gf180mcu_fd_sc_mcu7t5v0__nand2_4
XANTENNA__093__I la_oenb_mprj[29] VDD VSS gf180mcu_fd_sc_mcu7t5v0__antenna
XFILLER_1_1695 VDD VSS gf180mcu_fd_sc_mcu7t5v0__filltie
XFILLER_6_1573 VDD VSS gf180mcu_fd_sc_mcu7t5v0__filltie
XANTENNA_user_wb_dat_gates\[19\]_A1 mprj_dat_i_user[19] VDD VSS gf180mcu_fd_sc_mcu7t5v0__antenna
XFILLER_2_1459 VDD VSS gf180mcu_fd_sc_mcu7t5v0__filltie
XFILLER_5_515 VDD VSS gf180mcu_fd_sc_mcu7t5v0__filltie
XANTENNA__178__I mprj_dat_o_core[17] VDD VSS gf180mcu_fd_sc_mcu7t5v0__antenna
Xuser_to_mprj_in_buffers\[18\] user_to_mprj_in_gates\[18\]/ZN la_data_in_mprj[18]
+ VDD VSS gf180mcu_fd_sc_mcu7t5v0__inv_8
XTAP_179 VDD VSS gf180mcu_fd_sc_mcu7t5v0__filltie
XTAP_168 VDD VSS gf180mcu_fd_sc_mcu7t5v0__filltie
XTAP_157 VDD VSS gf180mcu_fd_sc_mcu7t5v0__filltie
XTAP_102 VDD VSS gf180mcu_fd_sc_mcu7t5v0__filltie
XTAP_113 VDD VSS gf180mcu_fd_sc_mcu7t5v0__filltie
XTAP_124 VDD VSS gf180mcu_fd_sc_mcu7t5v0__filltie
XTAP_135 VDD VSS gf180mcu_fd_sc_mcu7t5v0__filltie
XTAP_146 VDD VSS gf180mcu_fd_sc_mcu7t5v0__filltie
XFILLER_3_1702 VDD VSS gf180mcu_fd_sc_mcu7t5v0__filltie
XANTENNA__088__I la_oenb_mprj[24] VDD VSS gf180mcu_fd_sc_mcu7t5v0__antenna
XFILLER_3_1768 VDD VSS gf180mcu_fd_sc_mcu7t5v0__filltie
XFILLER_1_1481 VDD VSS gf180mcu_fd_sc_mcu7t5v0__filltie
XFILLER_6_1381 VDD VSS gf180mcu_fd_sc_mcu7t5v0__fill_1
XANTENNA_user_wb_ack_gate_A1 mprj_ack_i_user VDD VSS gf180mcu_fd_sc_mcu7t5v0__antenna
XANTENNA_user_to_mprj_in_gates\[4\]_A1 la_data_out_core[4] VDD VSS gf180mcu_fd_sc_mcu7t5v0__antenna
XFILLER_2_1278 VDD VSS gf180mcu_fd_sc_mcu7t5v0__filltie
XFILLER_6_879 VDD VSS gf180mcu_fd_sc_mcu7t5v0__filltie
XFILLER_6_846 VDD VSS gf180mcu_fd_sc_mcu7t5v0__fillcap_16
XFILLER_5_367 VDD VSS gf180mcu_fd_sc_mcu7t5v0__filltie
XFILLER_5_345 VDD VSS gf180mcu_fd_sc_mcu7t5v0__fillcap_8
XFILLER_1_595 VDD VSS gf180mcu_fd_sc_mcu7t5v0__filltie
XFILLER_1_584 VDD VSS gf180mcu_fd_sc_mcu7t5v0__fill_1
XFILLER_3_69 VDD VSS gf180mcu_fd_sc_mcu7t5v0__filltie
XFILLER_5_890 VDD VSS gf180mcu_fd_sc_mcu7t5v0__filltie
XFILLER_3_1598 VDD VSS gf180mcu_fd_sc_mcu7t5v0__filltie
XFILLER_4_1307 VDD VSS gf180mcu_fd_sc_mcu7t5v0__filltie
XFILLER_2_315 VDD VSS gf180mcu_fd_sc_mcu7t5v0__fillcap_4
XFILLER_2_1020 VDD VSS gf180mcu_fd_sc_mcu7t5v0__filltie
XFILLER_2_1031 VDD VSS gf180mcu_fd_sc_mcu7t5v0__fillcap_8
Xla_buf\[41\] _016_/ZN la_data_out_mprj[41] la_data_in_core[41] VDD VSS gf180mcu_fd_sc_mcu7t5v0__bufz_8
XANTENNA_user_to_mprj_in_gates\[40\]_A2 la_iena_mprj[40] VDD VSS gf180mcu_fd_sc_mcu7t5v0__antenna
XFILLER_6_632 VDD VSS gf180mcu_fd_sc_mcu7t5v0__fillcap_32
XANTENNA__191__I mprj_dat_o_core[30] VDD VSS gf180mcu_fd_sc_mcu7t5v0__antenna
XFILLER_4_1852 VDD VSS gf180mcu_fd_sc_mcu7t5v0__filltie
XFILLER_1_381 VDD VSS gf180mcu_fd_sc_mcu7t5v0__filltie
XFILLER_4_1885 VDD VSS gf180mcu_fd_sc_mcu7t5v0__filltie
XFILLER_0_1727 VDD VSS gf180mcu_fd_sc_mcu7t5v0__filltie
XFILLER_0_1749 VDD VSS gf180mcu_fd_sc_mcu7t5v0__fill_1
Xuser_to_mprj_in_gates\[30\] la_data_out_core[30] la_iena_mprj[30] user_to_mprj_in_gates\[30\]/ZN
+ VDD VSS gf180mcu_fd_sc_mcu7t5v0__nand2_4
XANTENNA_user_to_mprj_in_gates\[63\]_A2 la_iena_mprj[63] VDD VSS gf180mcu_fd_sc_mcu7t5v0__antenna