*SPEF "IEEE 1481-1999"
*DESIGN "gpio_defaults_block"
*DATE "Tue Oct 17 02:26:19 2023"
*VENDOR "Synopsys Inc."
*PROGRAM "StarRC"
*VERSION "U-2022.12-SP4"
*DESIGN_FLOW "PIN_CAP NONE" "NAME_SCOPE LOCAL"
*DIVIDER /
*DELIMITER :
*BUS_DELIMITER ()
*T_UNIT 1.0 NS
*C_UNIT 1.0 FF
*R_UNIT 1.0 OHM
*L_UNIT 1.0 HENRY

// COMMENTS

// CORNER_NAME 
// OPERATING_TEMPERATURE 25
// GLOBAL_TEMPERATURE 25
// TCAD_GRD_FILE /home/passant/caravel-gf180mcu/scripts/gf180mcu-tech/gf180mcu_1p5m_1tm_11k_sp_smim_OPTB_typ.nxtgrd
//   TCAD_TIME_STAMP Tue Dec 26 18:36:27 2017
//   TCADGRD_VERSION 75
// galaxy_comments_begin
//   local_nodeid
// galaxy_comments_end

*NAME_MAP
*24 gpio_defaults\[0\]
*25 gpio_defaults\[1\]
*26 gpio_defaults\[2\]
*27 gpio_defaults\[3\]
*28 gpio_defaults\[4\]
*29 gpio_defaults\[5\]
*30 gpio_defaults\[6\]
*31 gpio_defaults\[7\]
*32 gpio_defaults\[8\]
*33 gpio_defaults\[9\]
*34 gpio_default_value_one\[0\]
*35 gpio_default_value_one\[1\]
*36 gpio_default_value_one\[2\]
*37 gpio_default_value_one\[3\]
*38 gpio_default_value_one\[4\]
*39 gpio_default_value_one\[5\]
*40 gpio_default_value_one\[6\]
*41 gpio_default_value_one\[7\]
*42 gpio_default_value_one\[8\]
*43 gpio_default_value_one\[9\]
*44 gpio_default_value_zero\[0\]
*45 gpio_default_value_zero\[1\]
*46 gpio_default_value_zero\[2\]
*47 gpio_default_value_zero\[3\]
*48 gpio_default_value_zero\[4\]
*49 gpio_default_value_zero\[5\]
*50 gpio_default_value_zero\[6\]
*51 gpio_default_value_zero\[7\]
*52 gpio_default_value_zero\[8\]
*53 gpio_default_value_zero\[9\]
*3 gpio_defaults\[0\]
*4 gpio_defaults\[1\]
*5 gpio_defaults\[2\]
*6 gpio_defaults\[3\]
*7 gpio_defaults\[4\]
*8 gpio_defaults\[5\]
*9 gpio_defaults\[6\]
*10 gpio_defaults\[7\]
*11 gpio_defaults\[8\]
*12 gpio_defaults\[9\]
*14 gpio_default_value_one\[0\]/Z
*15 gpio_default_value_one\[1\]/Z
*16 gpio_default_value_one\[2\]/Z
*17 gpio_default_value_one\[3\]/Z
*18 gpio_default_value_one\[4\]/Z
*19 gpio_default_value_one\[5\]/Z
*20 gpio_default_value_one\[6\]/Z
*21 gpio_default_value_one\[7\]/Z
*22 gpio_default_value_one\[8\]/Z
*23 gpio_default_value_one\[9\]/Z

*PORTS

*24 B
*25 B
*26 B
*27 B
*28 B
*29 B
*30 B
*31 B
*32 B
*33 B

*D_NET *3 0.891803

*CONN
*P *24 B *C 3.6400 0.1650
*I *44:ZN O *C 4.7650 1.3950 *D gf180mcu_fd_sc_mcu7t5v0__tiel

*CAP
1 *3:2 *4:4 0.182823
2 *3:2 *34:Z 0.0475817
3 *24 0.188028
4 *3:2 0.212766
5 *3:3 0.13598
6 *3:4 0.124625
7 *3:5 0.0

*RES
1 *24 *3:2 0.388929
2 *44:ZN *3:2 4.81641
3 *44:ZN *3:5 0.001
4 *44:ZN *3:4 0.001
5 *3:3 *3:4 0.283188
*END

*D_NET *4 1.64828

*CONN
*P *25 B *C 5.1800 0.6175
*I *45:ZN O *C 4.7650 6.4450 *D gf180mcu_fd_sc_mcu7t5v0__tiel

*CAP
1 *4:4 *3:2 0.182823
2 *4:4 *26 0.271291
3 *4:4 *35:Z 0.034229
4 *25 0.126819
5 *4:2 0.288851
6 *4:4 0.492592
7 *4:5 0.117145
8 *4:6 0.134533
9 *4:7 0.0

*RES
1 *25 *4:4 0.001
2 *45:ZN *4:2 4.71235
3 *45:ZN *4:7 0.001
4 *45:ZN *4:5 0.001
5 *4:2 *4:4 1.85786
6 *4:3 *4:4 0.001
7 *4:5 *4:6 0.275088
*END

*D_NET *5 1.97207

*CONN
*P *26 B *C 7.0000 0.1650
*I *46:ZN O *C 4.7650 9.2350 *D gf180mcu_fd_sc_mcu7t5v0__tiel

*CAP
1 *26 *4:4 0.271291
2 *26 *27 0.288962
3 *26 *36:Z 0.0290323
4 *26 0.653578
5 *5:2 0.478561
6 *5:3 0.128024
7 *5:4 0.122619
8 *5:5 0.0

*RES
1 *26 *5:2 2.90893
2 *46:ZN *5:2 5.1286
3 *46:ZN *5:5 0.001
4 *46:ZN *5:4 0.001
5 *5:3 *5:4 0.283188
*END

*D_NET *6 2.96606

*CONN
*P *27 B *C 8.6800 0.1650
*I *47:ZN O *C 4.7650 14.2850 *D gf180mcu_fd_sc_mcu7t5v0__tiel

*CAP
1 *27 *26 0.288962
2 *27 *7:2 0.0372902
3 *27 *29 0.0107923
4 *27 *30 0.00644973
5 *27 *37:Z 0.00210421
6 *6:2 *37:Z 0.0243837
7 *27 *38:Z 0.0181263
8 *27 *39:Z 0.00130661
9 *27 *40:Z 0.00130661
10 *27 1.34313
11 *6:2 0.973433
12 *6:3 0.116735
13 *6:4 0.142042
14 *6:5 0.0

*RES
1 *27 *6:2 4.63661
2 *47:ZN *6:2 5.50969
3 *47:ZN *6:5 0.001
4 *47:ZN *6:3 0.001
5 *6:3 *6:4 0.275088
*END

*D_NET *7 0.909827

*CONN
*P *28 B *C 10.3600 0.1650
*I *48:ZN O *C 11.4850 1.3950 *D gf180mcu_fd_sc_mcu7t5v0__tiel

*CAP
1 *7:2 *27 0.0372902
2 *7:2 *29 0.0596823
3 *7:2 *30 0.00393439
4 *7:2 *38:Z 0.0319954
5 *28 0.21084
6 *7:2 0.308461
7 *7:3 0.1344
8 *7:4 0.123224
9 *7:5 0.0

*RES
1 *28 *7:2 0.388929
2 *48:ZN *7:2 4.81641
3 *48:ZN *7:5 0.001
4 *48:ZN *7:4 0.001
5 *7:3 *7:4 0.283188
*END

*D_NET *8 1.67832

*CONN
*P *29 B *C 12.1800 0.6700
*I *49:ZN O *C 11.4850 6.4450 *D gf180mcu_fd_sc_mcu7t5v0__tiel

*CAP
1 *29 *27 0.0107923
2 *29 *7:2 0.0596823
3 *29 *30 0.258983
4 *29 *31 0.000289852
5 *29 *39:Z 0.0169138
6 *29 0.597517
7 *8:2 0.342146
8 *8:3 0.115962
9 *8:4 0.133806
10 *8:6 0.142223

*RES
1 *29 *8:6 0.001
2 *29 *8:2 1.83054
3 *49:ZN *8:2 4.74047
4 *49:ZN *8:5 0.001
5 *49:ZN *8:3 0.001
6 *8:3 *8:4 0.275088
*END

*D_NET *9 2.18075

*CONN
*P *30 B *C 13.7200 0.1650
*I *50:ZN O *C 11.4850 9.2350 *D gf180mcu_fd_sc_mcu7t5v0__tiel

*CAP
1 *30 *27 0.00644973
2 *30 *7:2 0.00393439
3 *30 *29 0.258983
4 *30 *31 0.472792
5 *30 *11:5 0.00758357
6 *30 *33 0.00276182
7 *30 *40:Z 0.0166632
8 *30 *41:Z 0.00111048
9 *30 *42:Z 0.000350511
10 *30 *43:Z 0.000350511
11 *30 0.65327
12 *9:2 0.506883
13 *9:3 0.128229
14 *9:4 0.121384
15 *9:5 0.0

*RES
1 *30 *9:2 2.90893
2 *50:ZN *9:2 5.1286
3 *50:ZN *9:5 0.001
4 *50:ZN *9:4 0.001
5 *9:3 *9:4 0.283188
*END

*D_NET *10 2.06465

*CONN
*P *31 B *C 15.2600 0.6775
*I *51:ZN O *C 17.0850 9.2350 *D gf180mcu_fd_sc_mcu7t5v0__tiel

*CAP
1 *31 *29 0.000289852
2 *31 *30 0.472792
3 *31 *11:5 0.0981326
4 *31 *33 0.193119
5 *31 *41:Z 0.0325074
6 *31 *42:Z 0.00139067
7 *31 *43:Z 0.0187403
8 *31 0.674448
9 *10:2 0.297097
10 *10:3 0.0249647
11 *10:4 0.12831
12 *10:5 0.122856
13 *10:6 0.0

*RES
1 *31 *10:2 2.91054
2 *31 *10:3 0.001
3 *51:ZN *10:2 5.15813
4 *51:ZN *10:6 0.001
5 *51:ZN *10:5 0.001
6 *10:4 *10:5 0.283188
*END

*D_NET *11 0.781894

*CONN
*P *32 B *C 17.0800 0.1650
*I *52:ZN O *C 17.0850 1.3950 *D gf180mcu_fd_sc_mcu7t5v0__tiel

*CAP
1 *11:5 *30 0.00758357
2 *11:5 *31 0.0981326
3 *11:5 *33 0.0645485
4 *11:5 *42:Z 0.0323117
5 *32 0.186536
6 *11:2 0.122877
7 *11:3 0.122657
8 *11:5 0.147248

*RES
1 *32 *11:5 0.349892
2 *52:ZN *11:5 4.5
3 *52:ZN *11:4 0.001
4 *52:ZN *11:3 0.001
5 *11:2 *11:3 0.283188
*END

*D_NET *12 1.3626

*CONN
*P *33 B *C 18.7600 0.1650
*I *53:ZN O *C 17.0850 6.4450 *D gf180mcu_fd_sc_mcu7t5v0__tiel

*CAP
1 *33 *30 0.00276182
2 *33 *31 0.193119
3 *33 *11:5 0.0645485
4 *33 *43:Z 0.0323442
5 *33 0.526815
6 *12:2 0.293148
7 *12:3 0.115962
8 *12:4 0.133906
9 *12:5 0.0

*RES
1 *33 *12:2 2.01214
2 *53:ZN *12:2 4.9711
3 *53:ZN *12:5 0.001
4 *53:ZN *12:3 0.001
5 *12:3 *12:4 0.275088
*END

*D_NET *14 0.665372

*CONN
*I *34:Z O *C 2.5200 2.3050 *D gf180mcu_fd_sc_mcu7t5v0__tieh

*CAP
1 *34:Z *3:2 0.0475817
2 *34:Z 0.61779
*END

*D_NET *15 0.858934

*CONN
*I *35:Z O *C 2.4300 5.8525 *D gf180mcu_fd_sc_mcu7t5v0__tieh

*CAP
1 *35:Z *4:4 0.034229
2 *35:Z 0.824705
*END

*D_NET *16 0.728122

*CONN
*I *36:Z O *C 2.5200 10.1450 *D gf180mcu_fd_sc_mcu7t5v0__tieh

*CAP
1 *36:Z *26 0.0290323
2 *36:Z 0.69909
*END

*D_NET *17 0.766618

*CONN
*I *37:Z O *C 2.4300 13.6925 *D gf180mcu_fd_sc_mcu7t5v0__tieh

*CAP
1 *37:Z *27 0.00210421
2 *37:Z *6:2 0.0243837
3 *37:Z 0.74013
*END

*D_NET *18 0.739132

*CONN
*I *38:Z O *C 9.2400 2.3050 *D gf180mcu_fd_sc_mcu7t5v0__tieh

*CAP
1 *38:Z *27 0.0181263
2 *38:Z *7:2 0.0319954
3 *38:Z 0.689011
*END

*D_NET *19 0.804493

*CONN
*I *39:Z O *C 9.1500 5.8525 *D gf180mcu_fd_sc_mcu7t5v0__tieh

*CAP
1 *39:Z *27 0.00130661
2 *39:Z *29 0.0169138
3 *39:Z 0.786273
*END

*D_NET *20 0.794059

*CONN
*I *40:Z O *C 9.2400 10.1450 *D gf180mcu_fd_sc_mcu7t5v0__tieh

*CAP
1 *40:Z *27 0.00130661
2 *40:Z *30 0.0166632
3 *40:Z 0.776089
*END

*D_NET *21 0.736364

*CONN
*I *41:Z O *C 14.8400 10.1450 *D gf180mcu_fd_sc_mcu7t5v0__tieh

*CAP
1 *41:Z *30 0.00111048
2 *41:Z *31 0.0325074
3 *41:Z 0.702746
*END

*D_NET *22 0.614915

*CONN
*I *42:Z O *C 14.8400 2.3050 *D gf180mcu_fd_sc_mcu7t5v0__tieh

*CAP
1 *42:Z *30 0.000350511
2 *42:Z *31 0.00139067
3 *42:Z *11:5 0.0323117
4 *42:Z 0.580862
*END

*D_NET *23 0.825592

*CONN
*I *43:Z O *C 14.7500 5.8525 *D gf180mcu_fd_sc_mcu7t5v0__tieh

*CAP
1 *43:Z *30 0.000350511
2 *43:Z *31 0.0187403
3 *43:Z *33 0.0323442
4 *43:Z 0.774157
*END
