*SPEF "IEEE 1481-1999"
*DESIGN "gpio_defaults_block"
*DATE "Sun Dec 11 08:36:58 2022"
*VENDOR "Synopsys Inc."
*PROGRAM "StarRC"
*VERSION "T-2022.03-SP3"
*DESIGN_FLOW "PIN_CAP NONE" "NAME_SCOPE LOCAL"
*DIVIDER /
*DELIMITER :
*BUS_DELIMITER ()
*T_UNIT 1.0 NS
*C_UNIT 1.0 FF
*R_UNIT 1.0 OHM
*L_UNIT 1.0 HENRY

// COMMENTS

// CORNER_NAME 
// OPERATING_TEMPERATURE 125
// GLOBAL_TEMPERATURE 25
// TCAD_GRD_FILE /home/passant/gf180_timing/caravel-gf180mcu/scripts/gf180-tech/gf180mcu_1p5m_1tm_9k_sp_smim_OPTB_wst.nxtgrd
//   TCAD_TIME_STAMP Tue Dec 26 17:57:55 2017
//   TCADGRD_VERSION 75
// galaxy_comments_begin
//   local_nodeid
// galaxy_comments_end

*NAME_MAP
*24 gpio_defaults\[0\]
*25 gpio_defaults\[1\]
*26 gpio_defaults\[2\]
*27 gpio_defaults\[3\]
*28 gpio_defaults\[4\]
*29 gpio_defaults\[5\]
*30 gpio_defaults\[6\]
*31 gpio_defaults\[7\]
*32 gpio_defaults\[8\]
*33 gpio_defaults\[9\]
*34 gpio_default_value_one\[0\]
*35 gpio_default_value_one\[1\]
*36 gpio_default_value_one\[2\]
*37 gpio_default_value_one\[3\]
*38 gpio_default_value_one\[4\]
*39 gpio_default_value_one\[5\]
*40 gpio_default_value_one\[6\]
*41 gpio_default_value_one\[7\]
*42 gpio_default_value_one\[8\]
*43 gpio_default_value_one\[9\]
*44 gpio_default_value_zero\[0\]
*45 gpio_default_value_zero\[1\]
*46 gpio_default_value_zero\[2\]
*47 gpio_default_value_zero\[3\]
*48 gpio_default_value_zero\[4\]
*49 gpio_default_value_zero\[5\]
*50 gpio_default_value_zero\[6\]
*51 gpio_default_value_zero\[7\]
*52 gpio_default_value_zero\[8\]
*53 gpio_default_value_zero\[9\]
*3 gpio_defaults\[0\]
*4 gpio_defaults\[1\]
*5 gpio_defaults\[2\]
*6 gpio_defaults\[3\]
*7 gpio_defaults\[4\]
*8 gpio_defaults\[5\]
*9 gpio_defaults\[6\]
*10 gpio_defaults\[7\]
*11 gpio_defaults\[8\]
*12 gpio_defaults\[9\]
*14 gpio_default_value_one\[0\]/Z
*15 gpio_default_value_one\[1\]/Z
*16 gpio_default_value_one\[2\]/Z
*17 gpio_default_value_one\[3\]/Z
*18 gpio_default_value_one\[4\]/Z
*19 gpio_default_value_one\[5\]/Z
*20 gpio_default_value_one\[6\]/Z
*21 gpio_default_value_one\[7\]/Z
*22 gpio_default_value_one\[8\]/Z
*23 gpio_default_value_one\[9\]/Z

*PORTS

*24 B
*25 B
*26 B
*27 B
*28 B
*29 B
*30 B
*31 B
*32 B
*33 B

*D_NET *3 1.01698

*CONN
*P *24 B *C 3.6400 0.1650
*I *44:ZN O *C 4.7650 1.3950 *D gf180mcu_fd_sc_mcu7t5v0__tiel

*CAP
1 *3:2 *4:3 0.201837
2 *3:2 *34:Z 0.0533893
3 *24 0.218224
4 *3:2 0.241101
5 *3:3 0.157907
6 *3:4 0.144518
7 *3:5 0.0

*RES
1 *24 *3:2 0.620212
2 *44:ZN *3:2 17.3496
3 *44:ZN *3:5 0.001
4 *44:ZN *3:4 0.001
5 *3:3 *3:4 0.451591
*END

*D_NET *4 1.84465

*CONN
*P *25 B *C 5.1800 0.6175
*I *45:ZN O *C 4.7650 6.4450 *D gf180mcu_fd_sc_mcu7t5v0__tiel

*CAP
1 *4:3 *3:2 0.201837
2 *4:3 *26 0.279276
3 *4:3 *35:Z 0.0390147
4 *25 0.0437906
5 *4:2 0.328167
6 *4:3 0.556425
7 *4:4 0.136699
8 *4:5 0.156791
9 *4:7 0.102648

*RES
1 *25 *4:3 0.001
2 *45:ZN *4:2 17.1836
3 *45:ZN *4:6 0.001
4 *45:ZN *4:4 0.001
5 *4:2 *4:3 3.02816
6 *4:3 *4:7 0.001
7 *4:4 *4:5 0.438674
*END

*D_NET *5 2.20142

*CONN
*P *26 B *C 7.0000 0.1650
*I *46:ZN O *C 4.7650 9.2350 *D gf180mcu_fd_sc_mcu7t5v0__tiel

*CAP
1 *26 *4:3 0.279276
2 *26 *27 0.299046
3 *26 *36:Z 0.0328846
4 *26 0.760376
5 *5:2 0.537613
6 *5:3 0.149877
7 *5:4 0.142346
8 *5:5 0.0

*RES
1 *26 *5:2 4.63877
2 *46:ZN *5:2 17.8474
3 *46:ZN *5:5 0.001
4 *46:ZN *5:4 0.001
5 *5:3 *5:4 0.451591
*END

*D_NET *6 3.33893

*CONN
*P *27 B *C 8.6800 0.1650
*I *47:ZN O *C 4.7650 14.2850 *D gf180mcu_fd_sc_mcu7t5v0__tiel

*CAP
1 *27 *26 0.299046
2 *27 *7:2 0.0352384
3 *27 *29 0.00996433
4 *27 *30 0.00641165
5 *27 *37:Z 0.00210457
6 *6:2 *37:Z 0.0280922
7 *27 *38:Z 0.0201544
8 *27 *39:Z 0.00145576
9 *27 *40:Z 0.00145576
10 *27 1.54699
11 *6:2 1.08768
12 *6:3 0.136252
13 *6:4 0.164092
14 *6:5 0.0

*RES
1 *27 *6:2 7.39385
2 *47:ZN *6:2 18.4551
3 *47:ZN *6:5 0.001
4 *47:ZN *6:3 0.001
5 *6:3 *6:4 0.438674
*END

*D_NET *7 1.04687

*CONN
*P *28 B *C 10.3600 0.1650
*I *48:ZN O *C 11.4850 1.3950 *D gf180mcu_fd_sc_mcu7t5v0__tiel

*CAP
1 *7:2 *27 0.0352384
2 *7:2 *29 0.0626379
3 *7:2 *30 0.00382962
4 *7:2 *38:Z 0.0361697
5 *28 0.253253
6 *7:2 0.356887
7 *7:3 0.15598
8 *7:4 0.142873
9 *7:5 0.0

*RES
1 *28 *7:2 0.620212
2 *48:ZN *7:2 17.3496
3 *48:ZN *7:5 0.001
4 *48:ZN *7:4 0.001
5 *7:3 *7:4 0.451591
*END

*D_NET *8 1.91106

*CONN
*P *29 B *C 12.1800 0.6700
*I *49:ZN O *C 11.4850 6.4450 *D gf180mcu_fd_sc_mcu7t5v0__tiel

*CAP
1 *29 *27 0.00996433
2 *29 *7:2 0.0626379
3 *29 *30 0.2667
4 *29 *39:Z 0.019303
5 *29 0.689757
6 *8:2 0.401844
7 *8:3 0.135431
8 *8:4 0.155868
9 *8:6 0.169555

*RES
1 *29 *8:6 0.001
2 *29 *8:2 3.00694
3 *49:ZN *8:2 17.2285
4 *49:ZN *8:5 0.001
5 *49:ZN *8:3 0.001
6 *8:3 *8:4 0.438674
*END

*D_NET *9 2.43126

*CONN
*P *30 B *C 13.7200 0.1650
*I *50:ZN O *C 11.4850 9.2350 *D gf180mcu_fd_sc_mcu7t5v0__tiel

*CAP
1 *30 *27 0.00641165
2 *30 *7:2 0.00382962
3 *30 *29 0.2667
4 *30 *31 0.506558
5 *30 *11:5 0.00731121
6 *30 *33 0.00266154
7 *30 *40:Z 0.018803
8 *30 *41:Z 0.00117412
9 *30 *42:Z 0.000351695
10 *30 *43:Z 0.000351695
11 *30 0.745742
12 *9:2 0.580324
13 *9:3 0.149933
14 *9:4 0.141109
15 *9:5 0.0

*RES
1 *30 *9:2 4.63877
2 *50:ZN *9:2 17.8474
3 *50:ZN *9:5 0.001
4 *50:ZN *9:4 0.001
5 *9:3 *9:4 0.451591
*END

*D_NET *10 2.31124

*CONN
*P *31 B *C 15.2600 0.6775
*I *51:ZN O *C 17.0850 9.2350 *D gf180mcu_fd_sc_mcu7t5v0__tiel

*CAP
1 *31 *30 0.506558
2 *31 *11:5 0.1074
3 *31 *33 0.210379
4 *31 *41:Z 0.0365858
5 *31 *42:Z 0.00520918
6 *31 *43:Z 0.0209018
7 *31 0.627322
8 *10:2 0.333141
9 *10:3 0.150248
10 *10:4 0.142554
11 *10:6 0.170939

*RES
1 *31 *10:6 0.001
2 *31 *10:2 4.67722
3 *51:ZN *10:2 17.8945
4 *51:ZN *10:5 0.001
5 *51:ZN *10:4 0.001
6 *10:3 *10:4 0.451591
*END

*D_NET *11 0.873627

*CONN
*P *32 B *C 17.0800 0.1650
*I *52:ZN O *C 17.0850 1.3950 *D gf180mcu_fd_sc_mcu7t5v0__tiel

*CAP
1 *11:5 *30 0.00731121
2 *11:5 *31 0.1074
3 *11:5 *33 0.0664762
4 *11:5 *42:Z 0.03863
5 *32 0.211525
6 *11:2 0.142424
7 *11:3 0.142313
8 *11:5 0.157547

*RES
1 *32 *11:5 0.55796
2 *52:ZN *11:5 16.845
3 *52:ZN *11:4 0.001
4 *52:ZN *11:3 0.001
5 *11:2 *11:3 0.451591
*END

*D_NET *12 1.52539

*CONN
*P *33 B *C 18.7600 0.1650
*I *53:ZN O *C 17.0850 6.4450 *D gf180mcu_fd_sc_mcu7t5v0__tiel

*CAP
1 *33 *30 0.00266154
2 *33 *31 0.210379
3 *33 *11:5 0.0664762
4 *33 *43:Z 0.0361529
5 *33 0.598722
6 *12:2 0.319313
7 *12:3 0.135431
8 *12:4 0.156255
9 *12:5 0.0

*RES
1 *33 *12:2 3.2087
2 *53:ZN *12:2 17.5962
3 *53:ZN *12:5 0.001
4 *53:ZN *12:3 0.001
5 *12:3 *12:4 0.438674
*END

*D_NET *14 0.754925

*CONN
*I *34:Z O *C 2.5200 2.3050 *D gf180mcu_fd_sc_mcu7t5v0__tieh

*CAP
1 *34:Z *3:2 0.0533893
2 *34:Z 0.701536
*END

*D_NET *15 0.992914

*CONN
*I *35:Z O *C 2.4300 5.8525 *D gf180mcu_fd_sc_mcu7t5v0__tieh

*CAP
1 *35:Z *4:3 0.0390147
2 *35:Z 0.953899
*END

*D_NET *16 0.835825

*CONN
*I *36:Z O *C 2.5200 10.1450 *D gf180mcu_fd_sc_mcu7t5v0__tieh

*CAP
1 *36:Z *26 0.0328846
2 *36:Z 0.80294
*END

*D_NET *17 0.879168

*CONN
*I *37:Z O *C 2.4300 13.6925 *D gf180mcu_fd_sc_mcu7t5v0__tieh

*CAP
1 *37:Z *27 0.00210457
2 *37:Z *6:2 0.0280922
3 *37:Z 0.848971
*END

*D_NET *18 0.848394

*CONN
*I *38:Z O *C 9.2400 2.3050 *D gf180mcu_fd_sc_mcu7t5v0__tieh

*CAP
1 *38:Z *27 0.0201544
2 *38:Z *7:2 0.0361697
3 *38:Z 0.79207
*END

*D_NET *19 0.934467

*CONN
*I *39:Z O *C 9.1500 5.8525 *D gf180mcu_fd_sc_mcu7t5v0__tieh

*CAP
1 *39:Z *27 0.00145576
2 *39:Z *29 0.019303
3 *39:Z 0.913708
*END

*D_NET *20 0.922297

*CONN
*I *40:Z O *C 9.2400 10.1450 *D gf180mcu_fd_sc_mcu7t5v0__tieh

*CAP
1 *40:Z *27 0.00145576
2 *40:Z *30 0.018803
3 *40:Z 0.902038
*END

*D_NET *21 0.845688

*CONN
*I *41:Z O *C 14.8400 10.1450 *D gf180mcu_fd_sc_mcu7t5v0__tieh

*CAP
1 *41:Z *30 0.00117412
2 *41:Z *31 0.0365858
3 *41:Z 0.807928
*END

*D_NET *22 0.705848

*CONN
*I *42:Z O *C 14.8400 2.3050 *D gf180mcu_fd_sc_mcu7t5v0__tieh

*CAP
1 *42:Z *30 0.000351695
2 *42:Z *31 0.00520918
3 *42:Z *11:5 0.03863
4 *42:Z 0.661657
*END

*D_NET *23 0.947504

*CONN
*I *43:Z O *C 14.7500 5.8525 *D gf180mcu_fd_sc_mcu7t5v0__tieh

*CAP
1 *43:Z *30 0.000351695
2 *43:Z *31 0.0209018
3 *43:Z *33 0.0361529
4 *43:Z 0.890098
*END
