*SPEF "IEEE 1481-1999"
*DESIGN "gpio_defaults_block"
*DATE "Tue Oct 17 02:27:19 2023"
*VENDOR "Synopsys Inc."
*PROGRAM "StarRC"
*VERSION "U-2022.12-SP4"
*DESIGN_FLOW "PIN_CAP NONE" "NAME_SCOPE LOCAL"
*DIVIDER /
*DELIMITER :
*BUS_DELIMITER ()
*T_UNIT 1.0 NS
*C_UNIT 1.0 FF
*R_UNIT 1.0 OHM
*L_UNIT 1.0 HENRY

// COMMENTS

// CORNER_NAME 
// OPERATING_TEMPERATURE -40
// GLOBAL_TEMPERATURE 25
// TCAD_GRD_FILE /home/passant/caravel-gf180mcu/scripts/gf180mcu-tech/gf180mcu_1p5m_1tm_11k_sp_smim_OPTB_bst.nxtgrd
//   TCAD_TIME_STAMP Tue Dec 26 18:39:34 2017
//   TCADGRD_VERSION 75
// galaxy_comments_begin
//   local_nodeid
// galaxy_comments_end

*NAME_MAP
*24 gpio_defaults\[0\]
*25 gpio_defaults\[1\]
*26 gpio_defaults\[2\]
*27 gpio_defaults\[3\]
*28 gpio_defaults\[4\]
*29 gpio_defaults\[5\]
*30 gpio_defaults\[6\]
*31 gpio_defaults\[7\]
*32 gpio_defaults\[8\]
*33 gpio_defaults\[9\]
*34 gpio_default_value_one\[0\]
*35 gpio_default_value_one\[1\]
*36 gpio_default_value_one\[2\]
*37 gpio_default_value_one\[3\]
*38 gpio_default_value_one\[4\]
*39 gpio_default_value_one\[5\]
*40 gpio_default_value_one\[6\]
*41 gpio_default_value_one\[7\]
*42 gpio_default_value_one\[8\]
*43 gpio_default_value_one\[9\]
*44 gpio_default_value_zero\[0\]
*45 gpio_default_value_zero\[1\]
*46 gpio_default_value_zero\[2\]
*47 gpio_default_value_zero\[3\]
*48 gpio_default_value_zero\[4\]
*49 gpio_default_value_zero\[5\]
*50 gpio_default_value_zero\[6\]
*51 gpio_default_value_zero\[7\]
*52 gpio_default_value_zero\[8\]
*53 gpio_default_value_zero\[9\]
*3 gpio_defaults\[0\]
*4 gpio_defaults\[1\]
*5 gpio_defaults\[2\]
*6 gpio_defaults\[3\]
*7 gpio_defaults\[4\]
*8 gpio_defaults\[5\]
*9 gpio_defaults\[6\]
*10 gpio_defaults\[7\]
*11 gpio_defaults\[8\]
*12 gpio_defaults\[9\]
*14 gpio_default_value_one\[0\]/Z
*15 gpio_default_value_one\[1\]/Z
*16 gpio_default_value_one\[2\]/Z
*17 gpio_default_value_one\[3\]/Z
*18 gpio_default_value_one\[4\]/Z
*19 gpio_default_value_one\[5\]/Z
*20 gpio_default_value_one\[6\]/Z
*21 gpio_default_value_one\[7\]/Z
*22 gpio_default_value_one\[8\]/Z
*23 gpio_default_value_one\[9\]/Z

*PORTS

*24 B
*25 B
*26 B
*27 B
*28 B
*29 B
*30 B
*31 B
*32 B
*33 B

*D_NET *3 0.81865

*CONN
*P *24 B *C 3.6400 0.1650
*I *44:ZN O *C 4.7650 1.3950 *D gf180mcu_fd_sc_mcu7t5v0__tiel

*CAP
1 *3:2 *4:4 0.173778
2 *3:2 *34:Z 0.042552
3 *24 0.165758
4 *3:2 0.191905
5 *3:3 0.126881
6 *3:4 0.117777
7 *3:5 0.0

*RES
1 *24 *3:2 0.268654
2 *44:ZN *3:2 4.45239
3 *44:ZN *3:5 0.001
4 *44:ZN *3:4 0.001
5 *3:3 *3:4 0.195614
*END

*D_NET *4 1.51817

*CONN
*P *25 B *C 5.1800 0.6175
*I *45:ZN O *C 4.7650 6.4450 *D gf180mcu_fd_sc_mcu7t5v0__tiel

*CAP
1 *4:4 *3:2 0.173778
2 *4:4 *26 0.262232
3 *4:4 *35:Z 0.030262
4 *25 0.112276
5 *4:2 0.25979
6 *4:4 0.444495
7 *4:5 0.110557
8 *4:6 0.124778
9 *4:7 0.0

*RES
1 *25 *4:4 0.001
2 *45:ZN *4:2 4.3805
3 *45:ZN *4:7 0.001
4 *45:ZN *4:5 0.001
5 *4:2 *4:4 1.28332
6 *4:3 *4:4 0.001
7 *4:5 *4:6 0.190018
*END

*D_NET *5 1.80674

*CONN
*P *26 B *C 7.0000 0.1650
*I *46:ZN O *C 4.7650 9.2350 *D gf180mcu_fd_sc_mcu7t5v0__tiel

*CAP
1 *26 *4:4 0.262232
2 *26 *27 0.277614
3 *26 *36:Z 0.0257599
4 *26 0.573965
5 *5:2 0.432676
6 *5:3 0.118646
7 *5:4 0.115844
8 *5:5 0.0

*RES
1 *26 *5:2 2.00936
2 *46:ZN *5:2 4.66803
3 *46:ZN *5:5 0.001
4 *46:ZN *5:4 0.001
5 *5:3 *5:4 0.195614
*END

*D_NET *6 2.69544

*CONN
*P *27 B *C 8.6800 0.1650
*I *47:ZN O *C 4.7650 14.2850 *D gf180mcu_fd_sc_mcu7t5v0__tiel

*CAP
1 *27 *26 0.277614
2 *27 *7:2 0.0383907
3 *27 *29 0.0116138
4 *27 *30 0.00637911
5 *27 *37:Z 0.00207667
6 *6:2 *37:Z 0.0212067
7 *27 *38:Z 0.0166318
8 *27 *39:Z 0.00118446
9 *27 *40:Z 0.00118446
10 *27 1.19051
11 *6:2 0.88602
12 *6:3 0.11016
13 *6:4 0.13247
14 *6:5 0.0

*RES
1 *27 *6:2 3.20276
2 *47:ZN *6:2 4.93127
3 *47:ZN *6:5 0.001
4 *47:ZN *6:3 0.001
5 *6:3 *6:4 0.190018
*END

*D_NET *7 0.824123

*CONN
*P *28 B *C 10.3600 0.1650
*I *48:ZN O *C 11.4850 1.3950 *D gf180mcu_fd_sc_mcu7t5v0__tiel

*CAP
1 *7:2 *27 0.0383907
2 *7:2 *29 0.0567062
3 *7:2 *30 0.00402386
4 *7:2 *38:Z 0.0284634
5 *28 0.180404
6 *7:2 0.274094
7 *7:3 0.125526
8 *7:4 0.116515
9 *7:5 0.0

*RES
1 *28 *7:2 0.268654
2 *48:ZN *7:2 4.45239
3 *48:ZN *7:5 0.001
4 *48:ZN *7:4 0.001
5 *7:3 *7:4 0.195614
*END

*D_NET *8 1.51459

*CONN
*P *29 B *C 12.1800 0.6700
*I *49:ZN O *C 11.4850 6.4450 *D gf180mcu_fd_sc_mcu7t5v0__tiel

*CAP
1 *29 *27 0.0116138
2 *29 *7:2 0.0567062
3 *29 *30 0.25062
4 *29 *31 0.000607354
5 *29 *39:Z 0.0148303
6 *29 0.524056
7 *8:2 0.299458
8 *8:3 0.10944
9 *8:4 0.124222
10 *8:6 0.123034

*RES
1 *29 *8:6 0.001
2 *29 *8:2 1.26445
3 *49:ZN *8:2 4.39993
4 *49:ZN *8:5 0.001
5 *49:ZN *8:3 0.001
6 *8:3 *8:4 0.190018
*END

*D_NET *9 1.99976

*CONN
*P *30 B *C 13.7200 0.1650
*I *50:ZN O *C 11.4850 9.2350 *D gf180mcu_fd_sc_mcu7t5v0__tiel

*CAP
1 *30 *27 0.00637911
2 *30 *7:2 0.00402386
3 *30 *29 0.25062
4 *30 *31 0.43957
5 *30 *11:5 0.00791883
6 *30 *33 0.00288502
7 *30 *40:Z 0.014737
8 *30 *41:Z 0.0010538
9 *30 *42:Z 0.000349818
10 *30 *43:Z 0.000349818
11 *30 0.585381
12 *9:2 0.452914
13 *9:3 0.118981
14 *9:4 0.114602
15 *9:5 0.0

*RES
1 *30 *9:2 2.00936
2 *50:ZN *9:2 4.66803
3 *50:ZN *9:5 0.001
4 *50:ZN *9:4 0.001
5 *9:3 *9:4 0.195614
*END

*D_NET *10 1.89493

*CONN
*P *31 B *C 15.2600 0.6775
*I *51:ZN O *C 17.0850 9.2350 *D gf180mcu_fd_sc_mcu7t5v0__tiel

*CAP
1 *31 *29 0.000607354
2 *31 *30 0.43957
3 *31 *11:5 0.0924396
4 *31 *33 0.187092
5 *31 *41:Z 0.0289554
6 *31 *42:Z 0.00115434
7 *31 *43:Z 0.0168274
8 *31 0.596599
9 *10:2 0.274621
10 *10:3 0.0220454
11 *10:4 0.11885
12 *10:5 0.116171
13 *10:6 0.0

*RES
1 *31 *10:2 2.01047
2 *31 *10:3 0.001
3 *51:ZN *10:2 4.68843
4 *51:ZN *10:6 0.001
5 *51:ZN *10:5 0.001
6 *10:4 *10:5 0.195614
*END

*D_NET *11 0.728392

*CONN
*P *32 B *C 17.0800 0.1650
*I *52:ZN O *C 17.0850 1.3950 *D gf180mcu_fd_sc_mcu7t5v0__tiel

*CAP
1 *11:5 *30 0.00791883
2 *11:5 *31 0.0924396
3 *11:5 *33 0.0624767
4 *11:5 *42:Z 0.0277344
5 *32 0.167682
6 *11:2 0.115987
7 *11:3 0.115969
8 *11:5 0.138185

*RES
1 *32 *11:5 0.241689
2 *52:ZN *11:5 4.23383
3 *52:ZN *11:4 0.001
4 *52:ZN *11:3 0.001
5 *11:2 *11:3 0.195614
*END

*D_NET *12 1.26132

*CONN
*P *33 B *C 18.7600 0.1650
*I *53:ZN O *C 17.0850 6.4450 *D gf180mcu_fd_sc_mcu7t5v0__tiel

*CAP
1 *33 *30 0.00288502
2 *33 *31 0.187092
3 *33 *11:5 0.0624767
4 *33 *43:Z 0.0293123
5 *33 0.474164
6 *12:2 0.271892
7 *12:3 0.10944
8 *12:4 0.124062
9 *12:5 0.0

*RES
1 *33 *12:2 1.3899
2 *53:ZN *12:2 4.55924
3 *53:ZN *12:5 0.001
4 *53:ZN *12:3 0.001
5 *12:3 *12:4 0.190018
*END

*D_NET *14 0.608351

*CONN
*I *34:Z O *C 2.5200 2.3050 *D gf180mcu_fd_sc_mcu7t5v0__tieh

*CAP
1 *34:Z *3:2 0.042552
2 *34:Z 0.565799
*END

*D_NET *15 0.77498

*CONN
*I *35:Z O *C 2.4300 5.8525 *D gf180mcu_fd_sc_mcu7t5v0__tieh

*CAP
1 *35:Z *4:4 0.030262
2 *35:Z 0.744718
*END

*D_NET *16 0.666577

*CONN
*I *36:Z O *C 2.5200 10.1450 *D gf180mcu_fd_sc_mcu7t5v0__tieh

*CAP
1 *36:Z *26 0.0257599
2 *36:Z 0.640817
*END

*D_NET *17 0.689882

*CONN
*I *37:Z O *C 2.4300 13.6925 *D gf180mcu_fd_sc_mcu7t5v0__tieh

*CAP
1 *37:Z *27 0.00207667
2 *37:Z *6:2 0.0212067
3 *37:Z 0.666598
*END

*D_NET *18 0.665614

*CONN
*I *38:Z O *C 9.2400 2.3050 *D gf180mcu_fd_sc_mcu7t5v0__tieh

*CAP
1 *38:Z *27 0.0166318
2 *38:Z *7:2 0.0284634
3 *38:Z 0.620519
*END

*D_NET *19 0.726066

*CONN
*I *39:Z O *C 9.1500 5.8525 *D gf180mcu_fd_sc_mcu7t5v0__tieh

*CAP
1 *39:Z *27 0.00118446
2 *39:Z *29 0.0148303
3 *39:Z 0.710052
*END

*D_NET *20 0.716973

*CONN
*I *40:Z O *C 9.2400 10.1450 *D gf180mcu_fd_sc_mcu7t5v0__tieh

*CAP
1 *40:Z *27 0.00118446
2 *40:Z *30 0.014737
3 *40:Z 0.701051
*END

*D_NET *21 0.664518

*CONN
*I *41:Z O *C 14.8400 10.1450 *D gf180mcu_fd_sc_mcu7t5v0__tieh

*CAP
1 *41:Z *30 0.0010538
2 *41:Z *31 0.0289554
3 *41:Z 0.634509
*END

*D_NET *22 0.559324

*CONN
*I *42:Z O *C 14.8400 2.3050 *D gf180mcu_fd_sc_mcu7t5v0__tieh

*CAP
1 *42:Z *30 0.000349818
2 *42:Z *31 0.00115434
3 *42:Z *11:5 0.0277344
4 *42:Z 0.530085
*END

*D_NET *23 0.741382

*CONN
*I *43:Z O *C 14.7500 5.8525 *D gf180mcu_fd_sc_mcu7t5v0__tieh

*CAP
1 *43:Z *30 0.000349818
2 *43:Z *31 0.0168274
3 *43:Z *33 0.0293123
4 *43:Z 0.694892
*END
