*SPEF "ieee 1481-1999"
*DESIGN "caravel_clocking"
*DATE "11:11:11 Fri 11 11, 1111"
*VENDOR "OpenRCX"
*PROGRAM "Parallel Extraction"
*VERSION "1.0"
*DESIGN_FLOW "NAME_SCOPE LOCAL" "PIN_CAP NONE"
*DIVIDER /
*DELIMITER :
*BUS_DELIMITER []
*T_UNIT 1 NS
*C_UNIT 1 PF
*R_UNIT 1 OHM
*L_UNIT 1 HENRY

*NAME_MAP
*3 core_clk
*4 ext_clk
*5 ext_clk_sel
*6 ext_reset
*7 pll_clk
*8 pll_clk90
*9 resetb
*10 resetb_sync
*11 sel2[0]
*12 sel2[1]
*13 sel2[2]
*14 sel[0]
*15 sel[1]
*16 sel[2]
*17 user_clk
*18 _000_
*19 _001_
*20 _002_
*21 _003_
*22 _004_
*23 _005_
*24 _006_
*25 _007_
*26 _008_
*27 _009_
*28 _010_
*29 _011_
*30 _012_
*31 _013_
*32 _014_
*33 _015_
*34 _016_
*35 _017_
*36 _018_
*37 _019_
*38 _020_
*39 _021_
*40 _022_
*41 _023_
*42 _024_
*43 _025_
*44 _026_
*45 _027_
*46 _028_
*47 _029_
*48 _030_
*49 _031_
*50 _032_
*51 _033_
*52 _034_
*53 _035_
*54 _036_
*55 _037_
*56 _038_
*57 _039_
*58 _040_
*59 _041_
*60 _042_
*61 _043_
*62 _044_
*63 _045_
*64 _046_
*65 _047_
*66 _048_
*67 _049_
*68 _050_
*69 _051_
*70 _052_
*71 _053_
*72 _054_
*73 _055_
*74 _056_
*75 _057_
*76 _058_
*77 _059_
*78 _060_
*79 _061_
*80 _062_
*81 _063_
*82 _064_
*83 _065_
*84 _066_
*85 _067_
*86 _068_
*87 _069_
*88 _070_
*89 _071_
*90 _072_
*91 _073_
*92 _074_
*93 _075_
*94 _076_
*95 _077_
*96 _078_
*97 _079_
*98 _080_
*99 _081_
*100 _082_
*101 _083_
*102 _084_
*103 _085_
*104 _086_
*105 _087_
*106 _088_
*107 _089_
*108 _090_
*109 _091_
*110 _092_
*111 _093_
*112 _094_
*113 _095_
*114 _096_
*115 _097_
*116 _098_
*117 _099_
*118 _100_
*119 _101_
*120 _102_
*121 _103_
*122 _104_
*123 _105_
*124 _106_
*125 _107_
*126 _108_
*127 _109_
*128 _110_
*129 _111_
*130 _112_
*131 _113_
*132 _114_
*133 _115_
*134 _116_
*135 _117_
*136 _118_
*137 _119_
*138 _120_
*139 _121_
*140 _122_
*141 _123_
*142 _124_
*143 _125_
*144 _126_
*145 _127_
*146 _128_
*147 _129_
*148 _130_
*149 _131_
*150 _132_
*151 _133_
*152 _134_
*153 _135_
*154 _136_
*155 _137_
*156 _138_
*157 _139_
*158 _140_
*159 _141_
*160 _142_
*161 _143_
*162 _144_
*163 _145_
*164 _146_
*165 _147_
*166 _148_
*167 _149_
*168 _150_
*169 _151_
*170 _152_
*171 _153_
*172 _154_
*173 _155_
*174 _156_
*175 _157_
*176 _158_
*177 _159_
*178 _160_
*179 _161_
*180 _162_
*181 _163_
*182 _164_
*183 _165_
*184 _166_
*185 _167_
*186 _168_
*187 _169_
*188 _170_
*189 _171_
*190 _172_
*191 _173_
*192 _174_
*193 _175_
*194 _176_
*195 _177_
*196 _178_
*197 _179_
*198 _180_
*199 _181_
*200 _182_
*201 _183_
*202 _184_
*203 _185_
*204 _186_
*205 _187_
*206 _188_
*207 _189_
*208 _190_
*209 _191_
*210 _192_
*211 _193_
*212 _194_
*213 _195_
*214 _196_
*215 _197_
*216 _198_
*217 _199_
*218 _200_
*219 _201_
*220 _202_
*221 _203_
*222 _204_
*223 _205_
*224 _206_
*225 _207_
*226 _208_
*227 _209_
*228 _210_
*229 _211_
*230 _212_
*231 _213_
*232 _214_
*233 _215_
*234 _216_
*235 _217_
*236 _218_
*237 divider\.even_0\.N\[0\]
*238 divider\.even_0\.N\[1\]
*239 divider\.even_0\.N\[2\]
*240 divider\.even_0\.counter\[0\]
*241 divider\.even_0\.counter\[1\]
*242 divider\.even_0\.counter\[2\]
*243 divider\.even_0\.out_counter
*244 divider\.odd_0\.counter2\[0\]
*245 divider\.odd_0\.counter2\[1\]
*246 divider\.odd_0\.counter2\[2\]
*247 divider\.odd_0\.counter\[0\]
*248 divider\.odd_0\.counter\[1\]
*249 divider\.odd_0\.counter\[2\]
*250 divider\.odd_0\.initial_begin\[0\]
*251 divider\.odd_0\.initial_begin\[1\]
*252 divider\.odd_0\.initial_begin\[2\]
*253 divider\.odd_0\.old_N\[0\]
*254 divider\.odd_0\.old_N\[1\]
*255 divider\.odd_0\.old_N\[2\]
*256 divider\.odd_0\.out_counter
*257 divider\.odd_0\.out_counter2
*258 divider\.odd_0\.rst_pulse
*259 divider\.out
*260 divider\.syncNp\[0\]
*261 divider\.syncNp\[1\]
*262 divider\.syncNp\[2\]
*263 divider2\.even_0\.N\[0\]
*264 divider2\.even_0\.N\[1\]
*265 divider2\.even_0\.N\[2\]
*266 divider2\.even_0\.counter\[0\]
*267 divider2\.even_0\.counter\[1\]
*268 divider2\.even_0\.counter\[2\]
*269 divider2\.even_0\.out_counter
*270 divider2\.odd_0\.counter2\[0\]
*271 divider2\.odd_0\.counter2\[1\]
*272 divider2\.odd_0\.counter2\[2\]
*273 divider2\.odd_0\.counter\[0\]
*274 divider2\.odd_0\.counter\[1\]
*275 divider2\.odd_0\.counter\[2\]
*276 divider2\.odd_0\.initial_begin\[0\]
*277 divider2\.odd_0\.initial_begin\[1\]
*278 divider2\.odd_0\.initial_begin\[2\]
*279 divider2\.odd_0\.old_N\[0\]
*280 divider2\.odd_0\.old_N\[1\]
*281 divider2\.odd_0\.old_N\[2\]
*282 divider2\.odd_0\.out_counter
*283 divider2\.odd_0\.out_counter2
*284 divider2\.odd_0\.rst_pulse
*285 divider2\.out
*286 divider2\.syncNp\[0\]
*287 divider2\.syncNp\[1\]
*288 divider2\.syncNp\[2\]
*289 ext_clk_syncd
*290 ext_clk_syncd_pre
*291 net1
*292 net10
*293 net11
*294 net12
*295 net13
*296 net14
*297 net15
*298 net2
*299 net3
*300 net4
*301 net5
*302 net6
*303 net7
*304 net8
*305 net9
*306 pll_clk_sel
*307 reset_delay\[0\]
*308 reset_delay\[1\]
*309 reset_delay\[2\]
*310 use_pll_first
*311 use_pll_second
*312 ANTENNA__221__A1
*313 ANTENNA__231__I0
*314 ANTENNA__232__I1
*315 ANTENNA__234__I
*316 ANTENNA__236__I
*317 ANTENNA__238__A2
*318 ANTENNA__238__A3
*319 ANTENNA__239__A2
*320 ANTENNA__239__B
*321 ANTENNA__241__A1
*322 ANTENNA__263__A2
*323 ANTENNA__265__A2
*324 ANTENNA__282__A1
*325 ANTENNA__285__I
*326 ANTENNA__294__A1
*327 ANTENNA__295__I
*328 ANTENNA__312__A2
*329 ANTENNA__312__B
*330 ANTENNA__330__A1
*331 ANTENNA__340__A1
*332 ANTENNA__340__B
*333 ANTENNA__341__A1
*334 ANTENNA__344__A2
*335 ANTENNA__345__A1
*336 ANTENNA__346__A1
*337 ANTENNA__350__I1
*338 ANTENNA__350__S
*339 ANTENNA__353__A1
*340 ANTENNA__361__I
*341 ANTENNA__362__A1
*342 ANTENNA__364__A1
*343 ANTENNA__365__A2
*344 ANTENNA__366__A1
*345 ANTENNA__376__A2
*346 ANTENNA__378__I
*347 ANTENNA__379__A1
*348 ANTENNA__390__A1
*349 ANTENNA__398__A1
*350 ANTENNA__398__A2
*351 ANTENNA__406__A1
*352 ANTENNA__406__A2
*353 ANTENNA__406__A3
*354 ANTENNA__407__A1
*355 ANTENNA__407__A2
*356 ANTENNA__407__B
*357 ANTENNA__410__A2
*358 ANTENNA__412__A3
*359 ANTENNA__416__A2
*360 ANTENNA__417__A2
*361 ANTENNA__421__A1
*362 ANTENNA__422__A2
*363 ANTENNA__423__A1
*364 ANTENNA__425__A2
*365 ANTENNA__435__A1
*366 ANTENNA__435__C
*367 ANTENNA__436__A1
*368 ANTENNA__439__A1
*369 ANTENNA__440__A1
*370 ANTENNA__441__A1
*371 ANTENNA__442__A1
*372 ANTENNA__445__CLKN
*373 ANTENNA__445__SETN
*374 ANTENNA__446__CLKN
*375 ANTENNA__446__SETN
*376 ANTENNA__447__CLKN
*377 ANTENNA__447__SETN
*378 ANTENNA__448__CLK
*379 ANTENNA__448__RN
*380 ANTENNA__449__CLK
*381 ANTENNA__449__RN
*382 ANTENNA__450__CLK
*383 ANTENNA__450__SETN
*384 ANTENNA__451__CLK
*385 ANTENNA__451__RN
*386 ANTENNA__452__CLK
*387 ANTENNA__453__CLK
*388 ANTENNA__454__CLK
*389 ANTENNA__455__CLK
*390 ANTENNA__455__SETN
*391 ANTENNA__456__CLK
*392 ANTENNA__456__RN
*393 ANTENNA__457__CLKN
*394 ANTENNA__457__RN
*395 ANTENNA__458__CLKN
*396 ANTENNA__458__SETN
*397 ANTENNA__459__CLKN
*398 ANTENNA__459__RN
*399 ANTENNA__460__CLKN
*400 ANTENNA__460__SETN
*401 ANTENNA__461__CLKN
*402 ANTENNA__461__RN
*403 ANTENNA__462__CLKN
*404 ANTENNA__462__SETN
*405 ANTENNA__463__CLKN
*406 ANTENNA__463__RN
*407 ANTENNA__464__CLK
*408 ANTENNA__464__RN
*409 ANTENNA__465__CLK
*410 ANTENNA__465__SETN
*411 ANTENNA__466__CLK
*412 ANTENNA__466__RN
*413 ANTENNA__467__CLK
*414 ANTENNA__467__SETN
*415 ANTENNA__468__CLK
*416 ANTENNA__468__RN
*417 ANTENNA__469__CLK
*418 ANTENNA__469__RN
*419 ANTENNA__470__CLK
*420 ANTENNA__470__RN
*421 ANTENNA__471__CLK
*422 ANTENNA__471__SETN
*423 ANTENNA__472__CLK
*424 ANTENNA__472__RN
*425 ANTENNA__473__CLK
*426 ANTENNA__473__RN
*427 ANTENNA__474__CLK
*428 ANTENNA__474__SETN
*429 ANTENNA__475__CLK
*430 ANTENNA__475__RN
*431 ANTENNA__476__CLK
*432 ANTENNA__477__CLK
*433 ANTENNA__477__D
*434 ANTENNA__478__CLK
*435 ANTENNA__478__D
*436 ANTENNA__479__CLK
*437 ANTENNA__480__CLK
*438 ANTENNA__480__SETN
*439 ANTENNA__481__CLK
*440 ANTENNA__481__RN
*441 ANTENNA__482__CLKN
*442 ANTENNA__482__RN
*443 ANTENNA__483__CLKN
*444 ANTENNA__483__SETN
*445 ANTENNA__484__CLKN
*446 ANTENNA__484__RN
*447 ANTENNA__485__CLKN
*448 ANTENNA__485__SETN
*449 ANTENNA__486__CLKN
*450 ANTENNA__486__RN
*451 ANTENNA__487__CLKN
*452 ANTENNA__487__SETN
*453 ANTENNA__488__CLKN
*454 ANTENNA__488__RN
*455 ANTENNA__489__CLK
*456 ANTENNA__489__RN
*457 ANTENNA__490__CLK
*458 ANTENNA__490__SETN
*459 ANTENNA__491__CLK
*460 ANTENNA__491__RN
*461 ANTENNA__492__CLK
*462 ANTENNA__492__SETN
*463 ANTENNA__493__CLK
*464 ANTENNA__493__SETN
*465 ANTENNA__494__CLK
*466 ANTENNA__494__RN
*467 ANTENNA__495__CLK
*468 ANTENNA__495__RN
*469 ANTENNA__496__RN
*470 ANTENNA__497__SETN
*471 ANTENNA__498__RN
*472 ANTENNA__499__RN
*473 ANTENNA__500__SETN
*474 ANTENNA__501__RN
*475 ANTENNA_input10_I
*476 ANTENNA_input11_I
*477 ANTENNA_input1_I
*478 ANTENNA_input2_I
*479 ANTENNA_input3_I
*480 ANTENNA_input4_I
*481 ANTENNA_input5_I
*482 ANTENNA_input6_I
*483 ANTENNA_input7_I
*484 ANTENNA_input8_I
*485 ANTENNA_input9_I
*486 ANTENNA_output12_I
*487 FILLER_0_103
*488 FILLER_0_105
*489 FILLER_0_112
*490 FILLER_0_144
*491 FILLER_0_148
*492 FILLER_0_161
*493 FILLER_0_2
*494 FILLER_0_254
*495 FILLER_0_34
*496 FILLER_0_38
*497 FILLER_0_46
*498 FILLER_0_50
*499 FILLER_0_52
*500 FILLER_0_55
*501 FILLER_0_67
*502 FILLER_0_99
*503 FILLER_10_105
*504 FILLER_10_164
*505 FILLER_10_198
*506 FILLER_10_2
*507 FILLER_10_4
*508 FILLER_11_100
*509 FILLER_11_109
*510 FILLER_11_201
*511 FILLER_11_292
*512 FILLER_12_162
*513 FILLER_12_266
*514 FILLER_12_81
*515 FILLER_13_16
*516 FILLER_13_179
*517 FILLER_13_2
*518 FILLER_13_266
*519 FILLER_13_65
*520 FILLER_14_197
*521 FILLER_14_2
*522 FILLER_14_264
*523 FILLER_14_6
*524 FILLER_14_8
*525 FILLER_1_109
*526 FILLER_1_126
*527 FILLER_1_128
*528 FILLER_1_140
*529 FILLER_1_148
*530 FILLER_1_210
*531 FILLER_1_213
*532 FILLER_1_260
*533 FILLER_1_91
*534 FILLER_1_93
*535 FILLER_2_10
*536 FILLER_2_109
*537 FILLER_2_2
*538 FILLER_2_215
*539 FILLER_2_220
*540 FILLER_2_259
*541 FILLER_2_266
*542 FILLER_3_139
*543 FILLER_3_15
*544 FILLER_3_2
*545 FILLER_3_200
*546 FILLER_3_213
*547 FILLER_3_22
*548 FILLER_3_24
*549 FILLER_3_53
*550 FILLER_3_6
*551 FILLER_3_8
*552 FILLER_4_159
*553 FILLER_4_192
*554 FILLER_4_2
*555 FILLER_4_266
*556 FILLER_5_106
*557 FILLER_5_216
*558 FILLER_5_249
*559 FILLER_5_302
*560 FILLER_5_36
*561 FILLER_5_78
*562 FILLER_6_115
*563 FILLER_6_2
*564 FILLER_6_223
*565 FILLER_6_266
*566 FILLER_6_45
*567 FILLER_7_15
*568 FILLER_7_164
*569 FILLER_7_2
*570 FILLER_7_213
*571 FILLER_7_250
*572 FILLER_7_6
*573 FILLER_7_8
*574 FILLER_8_10
*575 FILLER_8_14
*576 FILLER_8_2
*577 FILLER_8_50
*578 FILLER_8_98
*579 FILLER_9_109
*580 FILLER_9_134
*581 PHY_0
*582 PHY_1
*583 PHY_10
*584 PHY_11
*585 PHY_12
*586 PHY_13
*587 PHY_14
*588 PHY_15
*589 PHY_16
*590 PHY_17
*591 PHY_18
*592 PHY_19
*593 PHY_2
*594 PHY_20
*595 PHY_21
*596 PHY_22
*597 PHY_23
*598 PHY_24
*599 PHY_25
*600 PHY_26
*601 PHY_27
*602 PHY_28
*603 PHY_29
*604 PHY_3
*605 PHY_4
*606 PHY_5
*607 PHY_6
*608 PHY_7
*609 PHY_8
*610 PHY_9
*611 TAP_30
*612 TAP_31
*613 TAP_32
*614 TAP_33
*615 TAP_34
*616 TAP_35
*617 TAP_36
*618 TAP_37
*619 TAP_38
*620 TAP_39
*621 TAP_40
*622 TAP_41
*623 TAP_42
*624 TAP_43
*625 TAP_44
*626 TAP_45
*627 TAP_46
*628 TAP_47
*629 TAP_48
*630 TAP_49
*631 TAP_50
*632 TAP_51
*633 TAP_52
*634 TAP_53
*635 TAP_54
*636 TAP_55
*637 TAP_56
*638 TAP_57
*639 TAP_58
*640 TAP_59
*641 TAP_60
*642 TAP_61
*643 TAP_62
*644 TAP_63
*645 TAP_64
*646 TAP_65
*647 TAP_66
*648 TAP_67
*649 TAP_68
*650 TAP_69
*651 TAP_70
*652 TAP_71
*653 _220_
*654 _221_
*655 _222_
*656 _223_
*657 _224_
*658 _225_
*659 _226_
*660 _227_
*661 _228_
*662 _229_
*663 _230_
*664 _231_
*665 _232_
*666 _233_
*667 _234_
*668 _235_
*669 _236_
*670 _237_
*671 _238_
*672 _239_
*673 _240_
*674 _241_
*675 _242_
*676 _243_
*677 _244_
*678 _245_
*679 _246_
*680 _247_
*681 _248_
*682 _249_
*683 _250_
*684 _251_
*685 _252_
*686 _253_
*687 _254_
*688 _255_
*689 _256_
*690 _257_
*691 _258_
*692 _259_
*693 _260_
*694 _261_
*695 _262_
*696 _263_
*697 _264_
*698 _265_
*699 _266_
*700 _267_
*701 _268_
*702 _269_
*703 _270_
*704 _271_
*705 _272_
*706 _273_
*707 _274_
*708 _275_
*709 _276_
*710 _277_
*711 _278_
*712 _279_
*713 _280_
*714 _281_
*715 _282_
*716 _283_
*717 _284_
*718 _285_
*719 _286_
*720 _287_
*721 _288_
*722 _289_
*723 _290_
*724 _291_
*725 _292_
*726 _293_
*727 _294_
*728 _295_
*729 _296_
*730 _297_
*731 _298_
*732 _299_
*733 _300_
*734 _301_
*735 _302_
*736 _303_
*737 _304_
*738 _305_
*739 _306_
*740 _307_
*741 _308_
*742 _309_
*743 _310_
*744 _311_
*745 _312_
*746 _313_
*747 _314_
*748 _315_
*749 _316_
*750 _317_
*751 _318_
*752 _319_
*753 _320_
*754 _321_
*755 _322_
*756 _323_
*757 _324_
*758 _325_
*759 _326_
*760 _327_
*761 _328_
*762 _329_
*763 _330_
*764 _331_
*765 _332_
*766 _333_
*767 _334_
*768 _335_
*769 _336_
*770 _337_
*771 _338_
*772 _339_
*773 _340_
*774 _341_
*775 _342_
*776 _343_
*777 _344_
*778 _345_
*779 _346_
*780 _347_
*781 _348_
*782 _349_
*783 _350_
*784 _351_
*785 _352_
*786 _353_
*787 _354_
*788 _355_
*789 _356_
*790 _357_
*791 _358_
*792 _359_
*793 _360_
*794 _361_
*795 _362_
*796 _363_
*797 _364_
*798 _365_
*799 _366_
*800 _367_
*801 _368_
*802 _369_
*803 _370_
*804 _371_
*805 _372_
*806 _373_
*807 _374_
*808 _375_
*809 _376_
*810 _377_
*811 _378_
*812 _379_
*813 _380_
*814 _381_
*815 _382_
*816 _383_
*817 _384_
*818 _385_
*819 _386_
*820 _387_
*821 _388_
*822 _389_
*823 _390_
*824 _391_
*825 _392_
*826 _393_
*827 _394_
*828 _395_
*829 _396_
*830 _397_
*831 _398_
*832 _399_
*833 _400_
*834 _401_
*835 _402_
*836 _403_
*837 _404_
*838 _405_
*839 _406_
*840 _407_
*841 _408_
*842 _409_
*843 _410_
*844 _411_
*845 _412_
*846 _413_
*847 _414_
*848 _415_
*849 _416_
*850 _417_
*851 _418_
*852 _419_
*853 _420_
*854 _421_
*855 _422_
*856 _423_
*857 _424_
*858 _425_
*859 _426_
*860 _427_
*861 _428_
*862 _429_
*863 _430_
*864 _431_
*865 _432_
*866 _433_
*867 _434_
*868 _435_
*869 _436_
*870 _437_
*871 _438_
*872 _439_
*873 _440_
*874 _441_
*875 _442_
*876 _443_
*877 _444_
*878 _445_
*879 _446_
*880 _447_
*881 _447__15
*882 _448_
*883 _449_
*884 _450_
*885 _451_
*886 _452_
*887 _453_
*888 _454_
*889 _455_
*890 _456_
*891 _457_
*892 _458_
*893 _459_
*894 _460_
*895 _461_
*896 _462_
*897 _463_
*898 _464_
*899 _465_
*900 _466_
*901 _467_
*902 _468_
*903 _469_
*904 _470_
*905 _471_
*906 _472_
*907 _473_
*908 _474_
*909 _475_
*910 _476_
*911 _477_
*912 _478_
*913 _479_
*914 _480_
*915 _481_
*916 _482_
*917 _483_
*918 _484_
*919 _485_
*920 _486_
*921 _487_
*922 _488_
*923 _489_
*924 _490_
*925 _491_
*926 _492_
*927 _493_
*928 _494_
*929 _495_
*930 _496_
*931 _497_
*932 _498_
*933 _499_
*934 _500_
*935 _501_
*936 input1
*937 input10
*938 input11
*939 input2
*940 input3
*941 input4
*942 input5
*943 input6
*944 input7
*945 input8
*946 input9
*947 output12
*948 output13
*949 output14

*PORTS
core_clk O
ext_clk I
ext_clk_sel I
ext_reset I
pll_clk I
pll_clk90 I
resetb I
resetb_sync O
sel2[0] I
sel2[1] I
sel2[2] I
sel[0] I
sel[1] I
sel[2] I
user_clk O

*D_NET *3 0.000683908
*CONN
*P core_clk O
*I *947:Z O *D gf180mcu_fd_sc_mcu7t5v0__buf_1
*CAP
1 core_clk 0.000248699
2 *947:Z 0.000248699
3 core_clk *384:I 0.000186509
*RES
1 *947:Z core_clk 15.975 
*END

*D_NET *4 0.0366091
*CONN
*P ext_clk I
*I *664:I0 I *D gf180mcu_fd_sc_mcu7t5v0__mux2_2
*I *313:I I *D gf180mcu_fd_sc_mcu7t5v0__antenna
*I *783:I1 I *D gf180mcu_fd_sc_mcu7t5v0__mux2_2
*I *337:I I *D gf180mcu_fd_sc_mcu7t5v0__antenna
*CAP
1 ext_clk 0.000375709
2 *664:I0 0
3 *313:I 0.000464743
4 *783:I1 0
5 *337:I 0.000903003
6 *4:38 0.00124316
7 *4:26 0.00141647
8 *4:8 0.00191676
9 *313:I *350:I 7.67197e-06
10 *313:I *664:S 0.00207461
11 *313:I *878:D 6.13757e-05
12 *313:I *878:CLKN 0.00475378
13 *313:I *880:D 0.00366802
14 *313:I *883:CLK 0.000253795
15 *313:I *948:I 0.00180292
16 *313:I *310:13 2.79764e-05
17 *337:I *813:A2 0.00012434
18 *337:I *162:42 0.000312847
19 *337:I *187:17 0.000124118
20 *4:8 *920:RN 0.000306659
21 *4:8 *276:11 0.000269328
22 *4:26 *384:I 4.13724e-05
23 *4:26 *783:S 7.66649e-05
24 *4:26 *784:I 0.00186465
25 *4:26 *836:S 0.000199461
26 *4:26 *843:A1 4.97357e-05
27 *4:26 *885:CLK 0.000248679
28 *4:26 *910:D 0.00186465
29 *4:26 *920:D 0.00142968
30 *4:26 *920:CLKN 0.000186509
31 *4:26 *171:10 7.45592e-05
32 *4:26 *276:18 0
33 *4:26 *299:341 9.19544e-05
34 *4:38 user_clk 0.000447444
35 *4:38 *664:I1 0.00348151
36 *4:38 *664:S 1.31519e-05
37 *4:38 *666:I 4.97358e-05
38 *4:38 *783:I0 0.00142991
39 *4:38 *880:D 0.0036054
40 *4:38 *885:CLK 0.000269254
41 *4:38 *7:19 0.000269328
42 *4:38 *290:8 0.000808207
*RES
1 ext_clk *4:8 8.235 
2 *4:8 *337:I 23.85 
3 *4:8 *4:26 13.41 
4 *4:26 *783:I1 4.5 
5 *4:26 *4:38 23.7664 
6 *4:38 *313:I 27.6236 
7 *4:38 *664:I0 4.5 
*END

*D_NET *5 0.0229093
*CONN
*P ext_clk_sel I
*I *936:I I *D gf180mcu_fd_sc_mcu7t5v0__clkbuf_1
*I *477:I I *D gf180mcu_fd_sc_mcu7t5v0__antenna
*CAP
1 ext_clk_sel 0.000247474
2 *936:I 3.64682e-05
3 *477:I 0.000354953
4 *5:5 0.000638895
5 *477:I *475:I 0.00444397
6 *477:I *478:I 0.0107339
7 *477:I *485:I 6.13027e-05
8 *477:I *882:D 0.000497358
9 *936:I *485:I 0.000348307
10 *936:I *300:32 2.25775e-05
11 *5:5 *465:I 0.000186509
12 *5:5 *475:I 0.00161641
13 *5:5 *478:I 0.000227955
14 *5:5 *679:A2 0.000135996
15 *5:5 *300:22 0.00335717
*RES
1 ext_clk_sel *5:5 8.325 
2 *5:5 *477:I 28.53 
3 *5:5 *936:I 9.51107 
*END

*D_NET *6 0.0377935
*CONN
*P ext_reset I
*I *939:I I *D gf180mcu_fd_sc_mcu7t5v0__clkbuf_1
*I *478:I I *D gf180mcu_fd_sc_mcu7t5v0__antenna
*CAP
1 ext_reset 0.00230417
2 *939:I 1.98793e-05
3 *478:I 0.000692939
4 *6:11 0.00301699
5 *478:I *339:I 0.00317066
6 *478:I *341:I 0.00012434
7 *478:I *343:I 0.00012434
8 *478:I *372:I 4.14464e-05
9 *478:I *389:I 9.32547e-06
10 *478:I *475:I 4.97357e-05
11 *478:I *482:I 0.000621698
12 *478:I *484:I 4.14464e-05
13 *478:I *782:I 5.59897e-05
14 *478:I *882:D 0.000497136
15 *478:I *58:84 0.00161641
16 *478:I *294:23 0.000746036
17 *478:I *299:63 0.000132888
18 *478:I *299:138 4.66274e-05
19 *478:I *299:421 1.86509e-05
20 *478:I *300:22 0.00136774
21 *478:I *300:32 0.00292154
22 *478:I *301:545 0.000137032
23 *478:I *301:561 6.34279e-05
24 *6:11 *480:I 0.00886594
25 *6:11 *948:I 0
26 *6:11 *13:8 0
27 *6:11 *300:22 0.00012434
28 *6:11 *301:561 2.09573e-05
29 *477:I *478:I 0.0107339
30 *5:5 *478:I 0.000227955
*RES
1 ext_reset *6:11 33.885 
2 *6:11 *478:I 31.86 
3 *6:11 *939:I 9.15107 
*END

*D_NET *7 0.0104136
*CONN
*P pll_clk I
*I *940:I I *D gf180mcu_fd_sc_mcu7t5v0__clkbuf_4
*I *479:I I *D gf180mcu_fd_sc_mcu7t5v0__antenna
*CAP
1 pll_clk 0.000110291
2 *940:I 0.000240942
3 *479:I 0
4 *7:19 0.00355034
5 *7:5 0.00390158
6 *7:19 *331:I 0
7 *7:19 *334:I 6.13758e-05
8 *7:19 *346:I 2.48235e-05
9 *7:19 *424:I 3.68254e-05
10 *7:19 *880:D 0.000435188
11 *7:19 *948:I 0.00155424
12 *7:19 *165:48 0.000104357
13 *7:19 *294:23 0.00012434
14 *4:38 *7:19 0.000269328
*RES
1 pll_clk *7:5 1.125 
2 *7:5 *7:19 47.88 
3 *7:19 *479:I 4.5 
4 *7:5 *940:I 6.21 
*END

*D_NET *8 0.0412157
*CONN
*P pll_clk90 I
*I *941:I I *D gf180mcu_fd_sc_mcu7t5v0__buf_3
*I *480:I I *D gf180mcu_fd_sc_mcu7t5v0__antenna
*CAP
1 pll_clk90 0.000538136
2 *941:I 7.16223e-06
3 *480:I 0.010475
4 *8:11 0.0110203
5 *480:I *476:I 0.00012434
6 *480:I *483:I 0.0046037
7 *480:I *484:I 0.000436133
8 *480:I *930:CLK 0.001181
9 *480:I *931:D 0
10 *480:I *97:14 0.000186435
11 *480:I *250:14 0.000869933
12 *480:I *263:22 0.000248679
13 *480:I *299:144 0.000186287
14 *480:I *301:742 0.000476486
15 *941:I *930:CLK 0.000373019
16 *941:I *263:22 0.000435189
17 *8:11 *878:SETN 0.000643276
18 *8:11 *948:I 8.59041e-05
19 *8:11 *263:36 3.68254e-05
20 *8:11 *301:742 5.36399e-05
21 *8:11 *301:746 0.000368255
22 *6:11 *480:I 0.00886594
*RES
1 pll_clk90 *8:11 10.485 
2 *8:11 *480:I 49.7857 
3 *8:11 *941:I 9.63 
*END

*D_NET *9 0.000815225
*CONN
*P resetb I
*I *481:I I *D gf180mcu_fd_sc_mcu7t5v0__antenna
*I *942:I I *D gf180mcu_fd_sc_mcu7t5v0__buf_12
*CAP
1 resetb 0.00021702
2 *481:I 0.000128557
3 *942:I 3.4071e-05
4 *9:5 0.000379648
5 *481:I *301:1000 5.59278e-05
*RES
1 resetb *9:5 1.845 
2 *9:5 *942:I 4.77 
3 *9:5 *481:I 14.76 
*END

*D_NET *10 0.00053629
*CONN
*P resetb_sync O
*I *948:Z O *D gf180mcu_fd_sc_mcu7t5v0__buf_4
*CAP
1 resetb_sync 0.000268145
2 *948:Z 0.000268145
3 resetb_sync *948:I 0
*RES
1 *948:Z resetb_sync 6.795 
*END

*D_NET *11 0.0413222
*CONN
*P sel2[0] I
*I *943:I I *D gf180mcu_fd_sc_mcu7t5v0__clkbuf_1
*I *482:I I *D gf180mcu_fd_sc_mcu7t5v0__antenna
*CAP
1 sel2[0] 0.000193696
2 *943:I 2.01168e-05
3 *482:I 0.00338343
4 *11:5 0.00359724
5 *482:I *372:I 0.000373019
6 *482:I *389:I 2.79764e-05
7 *482:I *476:I 6.54094e-06
8 *482:I *483:I 0.00778403
9 *482:I *484:I 0.0242813
10 *482:I *929:D 0
11 *482:I *16:8 7.74849e-05
12 *943:I *264:10 0.000477854
13 *943:I *300:5 0.000477854
14 *478:I *482:I 0.000621698
*RES
1 sel2[0] *11:5 1.485 
2 *11:5 *482:I 46.3513 
3 *11:5 *943:I 9.70071 
*END

*D_NET *12 0.042987
*CONN
*P sel2[1] I
*I *944:I I *D gf180mcu_fd_sc_mcu7t5v0__clkbuf_1
*I *483:I I *D gf180mcu_fd_sc_mcu7t5v0__antenna
*CAP
1 sel2[1] 0.000519265
2 *944:I 7.81879e-06
3 *483:I 0.00185041
4 *12:8 0.00237749
5 *483:I *372:I 0.000186287
6 *483:I *389:I 6.13758e-05
7 *483:I *484:I 0.0242813
8 *483:I *13:8 0
9 *483:I *259:26 0.000123662
10 *483:I *259:31 2.04586e-05
11 *483:I *294:15 0.000169953
12 *483:I *294:23 0.000124118
13 *944:I *877:I 0
14 *944:I *179:16 6.90477e-06
15 *944:I *264:10 1.23299e-05
16 *12:8 *930:CLK 0.000808207
17 *12:8 *13:8 0
18 *12:8 *263:22 4.97357e-05
19 *480:I *483:I 0.0046037
20 *482:I *483:I 0.00778403
*RES
1 sel2[1] *12:8 9.495 
2 *12:8 *483:I 40.5918 
3 *12:8 *944:I 13.6607 
*END

*D_NET *13 0.0556914
*CONN
*P sel2[2] I
*I *484:I I *D gf180mcu_fd_sc_mcu7t5v0__antenna
*I *945:I I *D gf180mcu_fd_sc_mcu7t5v0__clkbuf_1
*CAP
1 sel2[2] 0.0025612
2 *484:I 0.000701123
3 *945:I 1.73195e-05
4 *13:8 0.00327964
5 *484:I *475:I 2.79764e-05
6 *484:I *299:138 5.43985e-05
7 *945:I *679:A1 9.64476e-06
8 *945:I *300:19 0
9 *478:I *484:I 4.14464e-05
10 *480:I *484:I 0.000436133
11 *482:I *484:I 0.0242813
12 *483:I *484:I 0.0242813
13 *483:I *13:8 0
14 *6:11 *13:8 0
15 *12:8 *13:8 0
*RES
1 sel2[2] *13:8 24.795 
2 *13:8 *945:I 13.6607 
3 *13:8 *484:I 29.935 
*END

*D_NET *14 0.0200752
*CONN
*P sel[0] I
*I *946:I I *D gf180mcu_fd_sc_mcu7t5v0__clkbuf_1
*I *485:I I *D gf180mcu_fd_sc_mcu7t5v0__antenna
*CAP
1 sel[0] 0.000625963
2 *946:I 8.47325e-05
3 *485:I 0.00137176
4 *14:12 0.00208246
5 *485:I *475:I 0.0129313
6 *485:I *301:531 3.0644e-05
7 *946:I *299:59 0
8 *14:12 *901:CLK 0
9 *14:12 *902:RN 0.000372797
10 *14:12 *904:D 6.26225e-05
11 *14:12 *240:6 0.000852106
12 *14:12 *240:24 0.000143137
13 *14:12 *241:6 0.000710543
14 *14:12 *299:44 6.21253e-05
15 *14:12 *301:531 2.45503e-05
16 *14:12 *301:573 0.000310849
17 *477:I *485:I 6.13027e-05
18 *936:I *485:I 0.000348307
*RES
1 sel[0] *14:12 14.715 
2 *14:12 *485:I 34.92 
3 *14:12 *946:I 5.29071 
*END

*D_NET *15 0.0256499
*CONN
*P sel[1] I
*I *475:I I *D gf180mcu_fd_sc_mcu7t5v0__antenna
*I *937:I I *D gf180mcu_fd_sc_mcu7t5v0__clkbuf_1
*CAP
1 sel[1] 0.000418895
2 *475:I 0.000920052
3 *937:I 1.38557e-05
4 *15:12 0.0013528
5 *475:I *116:18 0
6 *475:I *300:19 0
7 *15:12 *679:A2 0.00337501
8 *15:12 *905:D 0.000255353
9 *15:12 *907:CLK 0.0001096
10 *15:12 *243:8 0.000134939
11 *15:12 *300:19 0
12 *477:I *475:I 0.00444397
13 *478:I *475:I 4.97357e-05
14 *484:I *475:I 2.79764e-05
15 *485:I *475:I 0.0129313
16 *5:5 *475:I 0.00161641
*RES
1 sel[1] *15:12 11.295 
2 *15:12 *937:I 4.68 
3 *15:12 *475:I 42.3 
*END

*D_NET *16 0.0331056
*CONN
*P sel[2] I
*I *476:I I *D gf180mcu_fd_sc_mcu7t5v0__antenna
*I *938:I I *D gf180mcu_fd_sc_mcu7t5v0__clkbuf_1
*CAP
1 sel[2] 0.000278241
2 *476:I 0.0154373
3 *938:I 3.98789e-06
4 *16:8 0.0157195
5 *476:I *315:I 0.00102558
6 *476:I *97:14 0.000124118
7 *938:I *264:10 0.000109599
8 *938:I *300:12 0.000109599
9 *16:8 *259:122 6.21698e-05
10 *16:8 *300:12 2.71669e-05
11 *480:I *476:I 0.00012434
12 *482:I *476:I 6.54094e-06
13 *482:I *16:8 7.74849e-05
*RES
1 sel[2] *16:8 6.975 
2 *16:8 *938:I 13.6607 
3 *16:8 *476:I 37.649 
*END

*D_NET *17 0.00464384
*CONN
*P user_clk O
*I *949:Z O *D gf180mcu_fd_sc_mcu7t5v0__buf_1
*CAP
1 user_clk 0.000737768
2 *949:Z 0.000737768
3 user_clk *352:I 0.000388421
4 user_clk *666:I 3.73018e-05
5 user_clk *783:I0 0.000207232
6 user_clk *838:A2 2.45503e-05
7 user_clk *845:A2 5.36718e-05
8 user_clk *880:D 0
9 user_clk *885:RN 2.68199e-05
10 user_clk *885:CLK 0.000434967
11 user_clk *910:D 2.45284e-05
12 user_clk *160:114 0.00010222
13 user_clk *276:32 3.58025e-05
14 user_clk *290:8 0.000248605
15 user_clk *294:73 1.81328e-05
16 user_clk *301:254 0.000124191
17 user_clk *301:258 0.000994419
18 *4:38 user_clk 0.000447444
*RES
1 *949:Z user_clk 23.625 
*END

*D_NET *18 0.00204015
*CONN
*I *884:D I *D gf180mcu_fd_sc_mcu7t5v0__dffsnq_1
*I *686:Z O *D gf180mcu_fd_sc_mcu7t5v0__clkbuf_1
*CAP
1 *884:D 0.000185339
2 *686:Z 0.000185339
3 *884:D *671:A3 1.66226e-05
4 *884:D *684:A1 4.14464e-05
5 *884:D *684:A2 0.000183908
6 *884:D *685:B 0.000309261
7 *884:D *686:I 0.000124339
8 *884:D *69:17 0.000932103
9 *884:D *70:57 5.52135e-05
10 *884:D *300:300 6.57598e-06
*RES
1 *686:Z *884:D 20.7 
*END

*D_NET *19 0.000991415
*CONN
*I *889:D I *D gf180mcu_fd_sc_mcu7t5v0__dffsnq_1
*I *690:Z O *D gf180mcu_fd_sc_mcu7t5v0__clkbuf_1
*CAP
1 *889:D 0.000167469
2 *690:Z 0.000167469
3 *889:D *370:I 0.000116358
4 *889:D *775:I 0.000347577
5 *889:D *901:CLK 0
6 *889:D *904:D 6.97902e-05
7 *889:D *299:44 0.000122752
*RES
1 *690:Z *889:D 11.52 
*END

*D_NET *20 0.00047975
*CONN
*I *890:D I *D gf180mcu_fd_sc_mcu7t5v0__dffrnq_1
*I *701:Z O *D gf180mcu_fd_sc_mcu7t5v0__clkbuf_1
*CAP
1 *890:D 0.00019265
2 *701:Z 0.00019265
3 *890:D *399:I 0
4 *890:D *467:I 8.28326e-05
5 *890:D *693:I 0
6 *890:D *890:CLK 1.16175e-05
*RES
1 *701:Z *890:D 10.89 
*END

*D_NET *21 0.000758289
*CONN
*I *891:D I *D gf180mcu_fd_sc_mcu7t5v0__dffnrnq_1
*I *717:Z O *D gf180mcu_fd_sc_mcu7t5v0__clkbuf_1
*CAP
1 *891:D 0.000231954
2 *717:Z 0.000231954
3 *891:D *891:CLKN 0.00016808
4 *891:D *892:D 0
5 *891:D *892:CLKN 4.04176e-05
6 *891:D *299:194 8.58822e-05
*RES
1 *717:Z *891:D 11.7707 
*END

*D_NET *22 0.000375479
*CONN
*I *892:D I *D gf180mcu_fd_sc_mcu7t5v0__dffnsnq_1
*I *723:Z O *D gf180mcu_fd_sc_mcu7t5v0__clkbuf_1
*CAP
1 *892:D 0.000106874
2 *723:Z 0.000106874
3 *892:D *723:I 0.000110432
4 *892:D *892:CLKN 5.12972e-05
5 *892:D *299:178 0
6 *891:D *892:D 0
*RES
1 *723:Z *892:D 10.35 
*END

*D_NET *23 0.00436571
*CONN
*I *893:D I *D gf180mcu_fd_sc_mcu7t5v0__dffnrnq_1
*I *731:ZN O *D gf180mcu_fd_sc_mcu7t5v0__nand3_1
*CAP
1 *893:D 0.000307578
2 *731:ZN 0.000307578
3 *893:D *717:I 0.000994715
4 *893:D *730:A4 0.000150298
5 *893:D *731:A1 0.000613538
6 *893:D *766:I 0.000833029
7 *893:D *898:D 0.000102307
8 *893:D *246:11 0.00105666
*RES
1 *731:ZN *893:D 25.8107 
*END

*D_NET *24 0.0049677
*CONN
*I *894:D I *D gf180mcu_fd_sc_mcu7t5v0__dffnsnq_1
*I *735:ZN O *D gf180mcu_fd_sc_mcu7t5v0__nand3_1
*CAP
1 *894:D 0.000276772
2 *735:ZN 0.000276772
3 *894:D *734:A1 2.19199e-05
4 *894:D *735:A3 0.000490787
5 *894:D *756:I 0.000257515
6 *894:D *926:D 0.00105666
7 *894:D *52:21 0.00217528
8 *894:D *80:59 0.00037287
9 *894:D *98:24 2.68519e-05
10 *894:D *249:5 1.22751e-05
*RES
1 *735:ZN *894:D 22.9307 
*END

*D_NET *25 0.000497317
*CONN
*I *895:D I *D gf180mcu_fd_sc_mcu7t5v0__dffnrnq_1
*I *741:ZN O *D gf180mcu_fd_sc_mcu7t5v0__oai31_1
*CAP
1 *895:D 9.65504e-05
2 *741:ZN 9.65504e-05
3 *895:D *334:I 0.000109933
4 *895:D *741:A1 0.00010843
5 *895:D *97:47 8.5853e-05
*RES
1 *741:ZN *895:D 10.62 
*END

*D_NET *26 0.000687391
*CONN
*I *896:D I *D gf180mcu_fd_sc_mcu7t5v0__dffnsnq_1
*I *749:ZN O *D gf180mcu_fd_sc_mcu7t5v0__oai31_1
*CAP
1 *896:D 0.000169446
2 *749:ZN 0.000169446
3 *896:D *749:A2 7.01439e-05
4 *896:D *749:A3 0.000106065
5 *896:D *896:CLKN 5.26078e-06
6 *896:D *116:13 0.00016703
7 *896:D *301:345 0
*RES
1 *749:ZN *896:D 10.98 
*END

*D_NET *27 0.000972393
*CONN
*I *897:D I *D gf180mcu_fd_sc_mcu7t5v0__dffnrnq_1
*I *752:Z O *D gf180mcu_fd_sc_mcu7t5v0__clkbuf_1
*CAP
1 *897:D 0.00010542
2 *752:Z 0.00010542
3 *897:D *325:I 5.3649e-05
4 *897:D *715:A1 0.000613538
5 *897:D *752:I 1.38095e-05
6 *897:D *80:61 8.05557e-05
7 *897:D *99:7 0
*RES
1 *752:Z *897:D 10.62 
*END

*D_NET *28 0.00869679
*CONN
*I *898:D I *D gf180mcu_fd_sc_mcu7t5v0__dffrnq_1
*I *759:ZN O *D gf180mcu_fd_sc_mcu7t5v0__nand3_1
*CAP
1 *898:D 0.000988053
2 *759:ZN 0.000988053
3 *898:D *712:A2 0.000124118
4 *898:D *716:C 0.000165712
5 *898:D *717:I 0.000255155
6 *898:D *723:I 8.39292e-05
7 *898:D *726:A1 0.000683866
8 *898:D *759:A2 2.45503e-05
9 *898:D *759:A3 0.00118123
10 *898:D *760:I 0.000621698
11 *898:D *766:I 3.9949e-05
12 *898:D *80:59 0.000122751
13 *898:D *80:92 0.00130557
14 *898:D *86:6 0.000290125
15 *898:D *86:17 0.000373018
16 *898:D *90:26 0.000696227
17 *898:D *136:11 0.000348106
18 *898:D *299:181 3.50954e-05
19 *898:D *299:185 0
20 *898:D *299:194 0.000120033
21 *898:D *299:204 0.000138296
22 *898:D *299:210 8.95063e-06
23 *893:D *898:D 0.000102307
*RES
1 *759:ZN *898:D 34.0007 
*END

*D_NET *29 0.000366994
*CONN
*I *899:D I *D gf180mcu_fd_sc_mcu7t5v0__dffsnq_1
*I *766:Z O *D gf180mcu_fd_sc_mcu7t5v0__clkbuf_1
*CAP
1 *899:D 8.7488e-05
2 *766:Z 8.7488e-05
3 *899:D *409:I 4.0223e-05
4 *899:D *766:I 0.000147083
5 *899:D *299:210 4.71278e-06
*RES
1 *766:Z *899:D 10.35 
*END

*D_NET *30 0.00394269
*CONN
*I *900:D I *D gf180mcu_fd_sc_mcu7t5v0__dffrnq_1
*I *771:ZN O *D gf180mcu_fd_sc_mcu7t5v0__nand3_1
*CAP
1 *900:D 0.000434364
2 *771:ZN 0.000434364
3 *900:D *400:I 2.14705e-05
4 *900:D *770:B 0.000217357
5 *900:D *771:A2 0.000207232
6 *900:D *771:A3 0.00254874
7 *900:D *900:CLK 5.42518e-06
8 *900:D *300:147 0
9 *900:D *300:149 0
10 *900:D *301:166 1.86398e-05
11 *900:D *301:178 5.50967e-05
*RES
1 *771:ZN *900:D 23.8307 
*END

*D_NET *31 0.000496561
*CONN
*I *901:D I *D gf180mcu_fd_sc_mcu7t5v0__dffsnq_1
*I *775:Z O *D gf180mcu_fd_sc_mcu7t5v0__clkbuf_1
*CAP
1 *901:D 9.4841e-05
2 *775:Z 9.4841e-05
3 *901:D *468:I 0.00015344
4 *901:D *775:I 0.000153439
5 *901:D *932:D 0
*RES
1 *775:Z *901:D 10.35 
*END

*D_NET *32 0.00859305
*CONN
*I *902:D I *D gf180mcu_fd_sc_mcu7t5v0__dffrnq_1
*I *779:ZN O *D gf180mcu_fd_sc_mcu7t5v0__oai31_1
*CAP
1 *902:D 0.000387976
2 *779:ZN 0.000387976
3 *902:D *336:I 5.59527e-05