*SPEF "ieee 1481-1999"
*DESIGN "digital_pll"
*DATE "11:11:11 Fri 11 11, 1111"
*VENDOR "OpenRCX"
*PROGRAM "Parallel Extraction"
*VERSION "1.0"
*DESIGN_FLOW "NAME_SCOPE LOCAL" "PIN_CAP NONE"
*DIVIDER /
*DELIMITER :
*BUS_DELIMITER []
*T_UNIT 1 NS
*C_UNIT 1 PF
*R_UNIT 1 OHM
*L_UNIT 1 HENRY

*NAME_MAP
*3 clockp[0]
*4 clockp[1]
*5 dco
*6 div[0]
*7 div[1]
*8 div[2]
*9 div[3]
*10 div[4]
*11 enable
*12 ext_trim[0]
*13 ext_trim[10]
*14 ext_trim[11]
*15 ext_trim[12]
*16 ext_trim[13]
*17 ext_trim[14]
*18 ext_trim[15]
*19 ext_trim[16]
*20 ext_trim[17]
*21 ext_trim[18]
*22 ext_trim[19]
*23 ext_trim[1]
*24 ext_trim[20]
*25 ext_trim[21]
*26 ext_trim[22]
*27 ext_trim[23]
*28 ext_trim[24]
*29 ext_trim[25]
*30 ext_trim[2]
*31 ext_trim[3]
*32 ext_trim[4]
*33 ext_trim[5]
*34 ext_trim[6]
*35 ext_trim[7]
*36 ext_trim[8]
*37 ext_trim[9]
*38 osc
*39 resetb
*40 _000_
*41 _001_
*42 _002_
*43 _003_
*44 _004_
*45 _005_
*46 _006_
*47 _007_
*48 _008_
*49 _009_
*50 _010_
*51 _011_
*52 _012_
*53 _013_
*54 _014_
*55 _015_
*56 _016_
*57 _017_
*58 _018_
*59 _019_
*60 _020_
*61 _021_
*62 _022_
*63 _023_
*64 _024_
*65 _025_
*66 _026_
*67 _027_
*68 _028_
*69 _029_
*70 _030_
*71 _031_
*72 _032_
*73 _033_
*74 _034_
*75 _035_
*76 _036_
*77 _037_
*78 _038_
*79 _039_
*80 _040_
*81 _041_
*82 _042_
*83 _043_
*84 _044_
*85 _045_
*86 _046_
*87 _047_
*88 _048_
*89 _049_
*90 _050_
*91 _051_
*92 _052_
*93 _053_
*94 _054_
*95 _055_
*96 _056_
*97 _057_
*98 _058_
*99 _059_
*100 _060_
*101 _061_
*102 _062_
*103 _063_
*104 _064_
*105 _065_
*106 _066_
*107 _067_
*108 _068_
*109 _069_
*110 _070_
*111 _071_
*112 _072_
*113 _073_
*114 _074_
*115 _075_
*116 _076_
*117 _077_
*118 _078_
*119 _079_
*120 _080_
*121 _081_
*122 _082_
*123 _083_
*124 _084_
*125 _085_
*126 _086_
*127 _087_
*128 _088_
*129 _089_
*130 _090_
*131 _091_
*132 _092_
*133 _093_
*134 _094_
*135 _095_
*136 _096_
*137 _097_
*138 _098_
*139 _099_
*140 _100_
*141 _101_
*142 _102_
*143 _103_
*144 _104_
*145 _105_
*146 _106_
*147 _107_
*148 _108_
*149 _109_
*150 _110_
*151 _111_
*152 _112_
*153 _113_
*154 _114_
*155 _115_
*156 _116_
*157 _117_
*158 _118_
*159 _119_
*160 _120_
*161 _121_
*162 _122_
*163 _123_
*164 _124_
*165 _125_
*166 _126_
*167 _127_
*168 _128_
*169 _129_
*170 _130_
*171 _131_
*172 _132_
*173 _133_
*174 _134_
*175 _135_
*176 _136_
*177 _137_
*178 _138_
*179 _139_
*180 _140_
*181 _141_
*182 _142_
*183 _143_
*184 _144_
*185 _145_
*186 _146_
*187 _147_
*188 _148_
*189 _149_
*190 _150_
*191 _151_
*192 _152_
*193 _153_
*194 _154_
*195 _155_
*196 _156_
*197 _157_
*198 _158_
*199 _159_
*200 _160_
*201 _161_
*202 _162_
*203 _163_
*204 _164_
*205 _165_
*206 _166_
*207 _167_
*208 _168_
*209 _169_
*210 _170_
*211 _171_
*212 _172_
*213 _173_
*214 _174_
*215 _175_
*216 _176_
*217 _177_
*218 _178_
*219 _179_
*220 _180_
*221 _181_
*222 _182_
*223 _183_
*224 _184_
*225 _185_
*226 _186_
*227 _187_
*228 _188_
*229 _189_
*230 _190_
*231 _191_
*232 _192_
*233 _193_
*234 _194_
*235 _195_
*236 _196_
*237 _197_
*238 _198_
*239 _199_
*240 _200_
*241 _201_
*242 _202_
*243 _203_
*244 _204_
*245 _205_
*246 _206_
*247 _207_
*248 _208_
*249 _209_
*250 _210_
*251 _211_
*252 _212_
*253 _213_
*254 _214_
*255 _215_
*256 _216_
*257 _217_
*258 _218_
*259 _219_
*260 _220_
*261 _221_
*262 _222_
*263 _223_
*264 _224_
*265 _225_
*266 _226_
*267 _227_
*268 _228_
*269 _229_
*270 _230_
*271 _231_
*272 _232_
*273 _233_
*274 _234_
*275 _235_
*276 _236_
*277 _237_
*278 _238_
*279 _239_
*280 _240_
*281 _241_
*282 _242_
*283 _243_
*284 _244_
*285 _245_
*286 _246_
*287 _247_
*288 _248_
*289 _249_
*290 _250_
*291 _251_
*292 _252_
*293 _253_
*294 _254_
*295 _255_
*296 _256_
*297 _257_
*298 _258_
*299 _259_
*300 _260_
*301 _261_
*302 _262_
*303 _263_
*304 _264_
*305 _265_
*306 _266_
*307 _267_
*308 _268_
*309 _269_
*310 _270_
*311 _271_
*312 _272_
*313 _273_
*314 _274_
*315 _275_
*316 _276_
*317 _277_
*318 _278_
*319 _279_
*320 _280_
*321 _281_
*322 _282_
*323 _283_
*324 _284_
*325 _285_
*326 _286_
*327 _287_
*328 _288_
*329 _289_
*330 _290_
*331 _291_
*332 _292_
*333 _293_
*334 _294_
*335 _295_
*336 _296_
*337 _297_
*338 _298_
*339 _299_
*340 _300_
*341 _301_
*342 _302_
*343 _303_
*344 _304_
*345 _305_
*346 _306_
*347 _307_
*348 _308_
*349 _309_
*350 _310_
*351 _311_
*352 _312_
*353 _313_
*354 _314_
*355 _315_
*356 _316_
*357 _317_
*358 net1
*359 net10
*360 net11
*361 net12
*362 net13
*363 net14
*364 net15
*365 net16
*366 net17
*367 net18
*368 net19
*369 net2
*370 net20
*371 net21
*372 net22
*373 net23
*374 net24
*375 net25
*376 net26
*377 net27
*378 net28
*379 net29
*380 net3
*381 net30
*382 net31
*383 net32
*384 net33
*385 net34
*386 net35
*387 net36
*388 net37
*389 net38
*390 net39
*391 net4
*392 net40
*393 net5
*394 net6
*395 net7
*396 net8
*397 net9
*398 pll_control\.clock
*399 pll_control\.count0\[0\]
*400 pll_control\.count0\[1\]
*401 pll_control\.count0\[2\]
*402 pll_control\.count0\[3\]
*403 pll_control\.count0\[4\]
*404 pll_control\.count1\[0\]
*405 pll_control\.count1\[1\]
*406 pll_control\.count1\[2\]
*407 pll_control\.count1\[3\]
*408 pll_control\.count1\[4\]
*409 pll_control\.oscbuf\[0\]
*410 pll_control\.oscbuf\[1\]
*411 pll_control\.oscbuf\[2\]
*412 pll_control\.prep\[0\]
*413 pll_control\.prep\[1\]
*414 pll_control\.prep\[2\]
*415 pll_control\.tint\[0\]
*416 pll_control\.tint\[1\]
*417 pll_control\.tint\[2\]
*418 pll_control\.tint\[3\]
*419 pll_control\.tint\[4\]
*420 pll_control\.tval\[0\]
*421 pll_control\.tval\[1\]
*422 ringosc\.c\[0\]
*423 ringosc\.c\[1\]
*424 ringosc\.dstage\[0\]\.id\.d0
*425 ringosc\.dstage\[0\]\.id\.d1
*426 ringosc\.dstage\[0\]\.id\.d2
*427 ringosc\.dstage\[0\]\.id\.in
*428 ringosc\.dstage\[0\]\.id\.out
*429 ringosc\.dstage\[0\]\.id\.trim0b
*430 ringosc\.dstage\[0\]\.id\.trim1b
*431 ringosc\.dstage\[0\]\.id\.trim\[0\]
*432 ringosc\.dstage\[0\]\.id\.trim\[1\]
*433 ringosc\.dstage\[0\]\.id\.ts
*434 ringosc\.dstage\[10\]\.id\.d0
*435 ringosc\.dstage\[10\]\.id\.d1
*436 ringosc\.dstage\[10\]\.id\.d2
*437 ringosc\.dstage\[10\]\.id\.in
*438 ringosc\.dstage\[10\]\.id\.out
*439 ringosc\.dstage\[10\]\.id\.trim0b
*440 ringosc\.dstage\[10\]\.id\.trim1b
*441 ringosc\.dstage\[10\]\.id\.trim\[0\]
*442 ringosc\.dstage\[10\]\.id\.trim\[1\]
*443 ringosc\.dstage\[10\]\.id\.ts
*444 ringosc\.dstage\[11\]\.id\.d0
*445 ringosc\.dstage\[11\]\.id\.d1
*446 ringosc\.dstage\[11\]\.id\.d2
*447 ringosc\.dstage\[11\]\.id\.out
*448 ringosc\.dstage\[11\]\.id\.trim0b
*449 ringosc\.dstage\[11\]\.id\.trim1b
*450 ringosc\.dstage\[11\]\.id\.trim\[0\]
*451 ringosc\.dstage\[11\]\.id\.trim\[1\]
*452 ringosc\.dstage\[11\]\.id\.ts
*453 ringosc\.dstage\[1\]\.id\.d0
*454 ringosc\.dstage\[1\]\.id\.d1
*455 ringosc\.dstage\[1\]\.id\.d2
*456 ringosc\.dstage\[1\]\.id\.out
*457 ringosc\.dstage\[1\]\.id\.trim0b
*458 ringosc\.dstage\[1\]\.id\.trim1b
*459 ringosc\.dstage\[1\]\.id\.trim\[0\]
*460 ringosc\.dstage\[1\]\.id\.trim\[1\]
*461 ringosc\.dstage\[1\]\.id\.ts
*462 ringosc\.dstage\[2\]\.id\.d0
*463 ringosc\.dstage\[2\]\.id\.d1
*464 ringosc\.dstage\[2\]\.id\.d2
*465 ringosc\.dstage\[2\]\.id\.out
*466 ringosc\.dstage\[2\]\.id\.trim0b
*467 ringosc\.dstage\[2\]\.id\.trim1b
*468 ringosc\.dstage\[2\]\.id\.trim\[0\]
*469 ringosc\.dstage\[2\]\.id\.trim\[1\]
*470 ringosc\.dstage\[2\]\.id\.ts
*471 ringosc\.dstage\[3\]\.id\.d0
*472 ringosc\.dstage\[3\]\.id\.d1
*473 ringosc\.dstage\[3\]\.id\.d2
*474 ringosc\.dstage\[3\]\.id\.out
*475 ringosc\.dstage\[3\]\.id\.trim0b
*476 ringosc\.dstage\[3\]\.id\.trim1b
*477 ringosc\.dstage\[3\]\.id\.trim\[0\]
*478 ringosc\.dstage\[3\]\.id\.trim\[1\]
*479 ringosc\.dstage\[3\]\.id\.ts
*480 ringosc\.dstage\[4\]\.id\.d0
*481 ringosc\.dstage\[4\]\.id\.d1
*482 ringosc\.dstage\[4\]\.id\.d2
*483 ringosc\.dstage\[4\]\.id\.out
*484 ringosc\.dstage\[4\]\.id\.trim0b
*485 ringosc\.dstage\[4\]\.id\.trim1b
*486 ringosc\.dstage\[4\]\.id\.trim\[0\]
*487 ringosc\.dstage\[4\]\.id\.trim\[1\]
*488 ringosc\.dstage\[4\]\.id\.ts
*489 ringosc\.dstage\[5\]\.id\.d0
*490 ringosc\.dstage\[5\]\.id\.d1
*491 ringosc\.dstage\[5\]\.id\.d2
*492 ringosc\.dstage\[5\]\.id\.out
*493 ringosc\.dstage\[5\]\.id\.trim0b
*494 ringosc\.dstage\[5\]\.id\.trim1b
*495 ringosc\.dstage\[5\]\.id\.trim\[0\]
*496 ringosc\.dstage\[5\]\.id\.trim\[1\]
*497 ringosc\.dstage\[5\]\.id\.ts
*498 ringosc\.dstage\[6\]\.id\.d0
*499 ringosc\.dstage\[6\]\.id\.d1
*500 ringosc\.dstage\[6\]\.id\.d2
*501 ringosc\.dstage\[6\]\.id\.out
*502 ringosc\.dstage\[6\]\.id\.trim0b
*503 ringosc\.dstage\[6\]\.id\.trim1b
*504 ringosc\.dstage\[6\]\.id\.trim\[0\]
*505 ringosc\.dstage\[6\]\.id\.trim\[1\]
*506 ringosc\.dstage\[6\]\.id\.ts
*507 ringosc\.dstage\[7\]\.id\.d0
*508 ringosc\.dstage\[7\]\.id\.d1
*509 ringosc\.dstage\[7\]\.id\.d2
*510 ringosc\.dstage\[7\]\.id\.out
*511 ringosc\.dstage\[7\]\.id\.trim0b
*512 ringosc\.dstage\[7\]\.id\.trim1b
*513 ringosc\.dstage\[7\]\.id\.trim\[0\]
*514 ringosc\.dstage\[7\]\.id\.trim\[1\]
*515 ringosc\.dstage\[7\]\.id\.ts
*516 ringosc\.dstage\[8\]\.id\.d0
*517 ringosc\.dstage\[8\]\.id\.d1
*518 ringosc\.dstage\[8\]\.id\.d2
*519 ringosc\.dstage\[8\]\.id\.out
*520 ringosc\.dstage\[8\]\.id\.trim0b
*521 ringosc\.dstage\[8\]\.id\.trim1b
*522 ringosc\.dstage\[8\]\.id\.trim\[0\]
*523 ringosc\.dstage\[8\]\.id\.trim\[1\]
*524 ringosc\.dstage\[8\]\.id\.ts
*525 ringosc\.dstage\[9\]\.id\.d0
*526 ringosc\.dstage\[9\]\.id\.d1
*527 ringosc\.dstage\[9\]\.id\.d2
*528 ringosc\.dstage\[9\]\.id\.trim0b
*529 ringosc\.dstage\[9\]\.id\.trim1b
*530 ringosc\.dstage\[9\]\.id\.trim\[0\]
*531 ringosc\.dstage\[9\]\.id\.trim\[1\]
*532 ringosc\.dstage\[9\]\.id\.ts
*533 ringosc\.iss\.ctrl0b
*534 ringosc\.iss\.d0
*535 ringosc\.iss\.d1
*536 ringosc\.iss\.d2
*537 ringosc\.iss\.reset
*538 ringosc\.iss\.trim1b
*539 ringosc\.iss\.trim\[0\]
*540 ringosc\.iss\.trim\[1\]
*541 ANTENNA__335__I
*542 ANTENNA__336__I0
*543 ANTENNA__342__A1
*544 ANTENNA__342__A2
*545 ANTENNA__344__A1
*546 ANTENNA__344__A2
*547 ANTENNA__346__A1
*548 ANTENNA__346__A2
*549 ANTENNA__390__A1
*550 ANTENNA__404__A1
*551 ANTENNA__412__A1
*552 ANTENNA__421__A1
*553 ANTENNA__440__I
*554 ANTENNA__486__I
*555 ANTENNA__496__A1
*556 ANTENNA__499__A1
*557 ANTENNA__502__A1
*558 ANTENNA__513__A1
*559 ANTENNA__514__A1
*560 ANTENNA__519__A1
*561 ANTENNA__520__A1
*562 ANTENNA__524__I
*563 ANTENNA__529__I
*564 ANTENNA__547__A1
*565 ANTENNA__562__B2
*566 ANTENNA__564__A1
*567 ANTENNA__568__A1
*568 ANTENNA__577__A1
*569 ANTENNA__584__B2
*570 ANTENNA__590__A1
*571 ANTENNA__594__B2
*572 ANTENNA__595__A1
*573 ANTENNA__599__A1
*574 ANTENNA__600__A2
*575 ANTENNA__602__A1
*576 ANTENNA__604__A1
*577 ANTENNA__605__A2
*578 ANTENNA__634__I
*579 ANTENNA__646__I
*580 ANTENNA__663__CLK
*581 ANTENNA__664__CLK
*582 ANTENNA__665__CLK
*583 ANTENNA__666__CLK
*584 ANTENNA__667__CLK
*585 ANTENNA__668__CLK
*586 ANTENNA__669__CLK
*587 ANTENNA__670__CLK
*588 ANTENNA__671__CLK
*589 ANTENNA__672__CLK
*590 ANTENNA__673__CLK
*591 ANTENNA__674__CLK
*592 ANTENNA__675__CLK
*593 ANTENNA__676__CLK
*594 ANTENNA__677__CLK
*595 ANTENNA__678__CLK
*596 ANTENNA__679__CLK
*597 ANTENNA__680__CLK
*598 ANTENNA__681__CLK
*599 ANTENNA__682__CLK
*600 ANTENNA__683__CLK
*601 ANTENNA__684__CLK
*602 ANTENNA__685__CLK
*603 ANTENNA__686__I
*604 ANTENNA_input10_I
*605 ANTENNA_input11_I
*606 ANTENNA_input12_I
*607 ANTENNA_input13_I
*608 ANTENNA_input14_I
*609 ANTENNA_input15_I
*610 ANTENNA_input16_I
*611 ANTENNA_input17_I
*612 ANTENNA_input18_I
*613 ANTENNA_input19_I
*614 ANTENNA_input1_I
*615 ANTENNA_input20_I
*616 ANTENNA_input21_I
*617 ANTENNA_input22_I
*618 ANTENNA_input23_I
*619 ANTENNA_input24_I
*620 ANTENNA_input25_I
*621 ANTENNA_input26_I
*622 ANTENNA_input27_I
*623 ANTENNA_input28_I
*624 ANTENNA_input29_I
*625 ANTENNA_input2_I
*626 ANTENNA_input30_I
*627 ANTENNA_input31_I
*628 ANTENNA_input32_I
*629 ANTENNA_input33_I
*630 ANTENNA_input34_I
*631 ANTENNA_input35_I
*632 ANTENNA_input3_I
*633 ANTENNA_input4_I
*634 ANTENNA_input5_I
*635 ANTENNA_input6_I
*636 ANTENNA_input7_I
*637 ANTENNA_input8_I
*638 ANTENNA_input9_I
*639 ANTENNA_ringosc\.dstage\[0\]\.id\.delaybuf1_I
*640 ANTENNA_ringosc\.dstage\[0\]\.id\.delayen1_EN
*641 ANTENNA_ringosc\.dstage\[0\]\.id\.delayenb0_I
*642 ANTENNA_ringosc\.dstage\[0\]\.id\.delayenb1_I
*643 ANTENNA_ringosc\.dstage\[0\]\.id\.trim1bar_I
*644 FILLER_0_103
*645 FILLER_0_107
*646 FILLER_0_174
*647 FILLER_0_201
*648 FILLER_0_209
*649 FILLER_0_212
*650 FILLER_0_216
*651 FILLER_0_226
*652 FILLER_0_242
*653 FILLER_0_244
*654 FILLER_0_247
*655 FILLER_0_279
*656 FILLER_0_34
*657 FILLER_0_37
*658 FILLER_0_72
*659 FILLER_10_116
*660 FILLER_10_125
*661 FILLER_10_129
*662 FILLER_10_170
*663 FILLER_10_179
*664 FILLER_10_186
*665 FILLER_10_194
*666 FILLER_10_201
*667 FILLER_10_239
*668 FILLER_10_247
*669 FILLER_10_25
*670 FILLER_10_250
*671 FILLER_10_266
*672 FILLER_10_270
*673 FILLER_10_272
*674 FILLER_10_34
*675 FILLER_10_51
*676 FILLER_10_53
*677 FILLER_10_74
*678 FILLER_10_88
*679 FILLER_11_135
*680 FILLER_11_144
*681 FILLER_11_240
*682 FILLER_11_272
*683 FILLER_11_28
*684 FILLER_11_280
*685 FILLER_11_37
*686 FILLER_11_52
*687 FILLER_11_69
*688 FILLER_11_8
*689 FILLER_11_81
*690 FILLER_12_135
*691 FILLER_12_151
*692 FILLER_12_164
*693 FILLER_12_187
*694 FILLER_12_195
*695 FILLER_12_199
*696 FILLER_12_202
*697 FILLER_12_219
*698 FILLER_12_243
*699 FILLER_12_247
*700 FILLER_12_250
*701 FILLER_12_266
*702 FILLER_12_274
*703 FILLER_12_278
*704 FILLER_12_280
*705 FILLER_12_94
*706 FILLER_13_139
*707 FILLER_13_141
*708 FILLER_13_168
*709 FILLER_13_176
*710 FILLER_13_2
*711 FILLER_13_212
*712 FILLER_13_238
*713 FILLER_13_270
*714 FILLER_13_278
*715 FILLER_13_280
*716 FILLER_13_34
*717 FILLER_13_99
*718 FILLER_14_103
*719 FILLER_14_120
*720 FILLER_14_122
*721 FILLER_14_179
*722 FILLER_14_191
*723 FILLER_14_206
*724 FILLER_14_237
*725 FILLER_14_241
*726 FILLER_14_267
*727 FILLER_14_271
*728 FILLER_14_33
*729 FILLER_14_56
*730 FILLER_14_6
*731 FILLER_14_64
*732 FILLER_14_66
*733 FILLER_15_104
*734 FILLER_15_140
*735 FILLER_15_157
*736 FILLER_15_159
*737 FILLER_15_186
*738 FILLER_15_2
*739 FILLER_15_242
*740 FILLER_15_267
*741 FILLER_15_275
*742 FILLER_15_279
*743 FILLER_15_47
*744 FILLER_15_73
*745 FILLER_16_105
*746 FILLER_16_108
*747 FILLER_16_133
*748 FILLER_16_230
*749 FILLER_16_245
*750 FILLER_16_247
*751 FILLER_16_273
*752 FILLER_16_34
*753 FILLER_16_67
*754 FILLER_16_69
*755 FILLER_17_109
*756 FILLER_17_144
*757 FILLER_17_175
*758 FILLER_17_210
*759 FILLER_17_212
*760 FILLER_17_276
*761 FILLER_17_280
*762 FILLER_17_37
*763 FILLER_17_45
*764 FILLER_17_49
*765 FILLER_17_79
*766 FILLER_18_105
*767 FILLER_18_108
*768 FILLER_18_162
*769 FILLER_18_175
*770 FILLER_18_202
*771 FILLER_18_230
*772 FILLER_18_41
*773 FILLER_18_8
*774 FILLER_18_89
*775 FILLER_19_127
*776 FILLER_19_136
*777 FILLER_19_152
*778 FILLER_19_201
*779 FILLER_19_210
*780 FILLER_19_246
*781 FILLER_19_274
*782 FILLER_19_278
*783 FILLER_19_280
*784 FILLER_19_38
*785 FILLER_19_46
*786 FILLER_19_8
*787 FILLER_1_146
*788 FILLER_1_148
*789 FILLER_1_2
*790 FILLER_1_209
*791 FILLER_1_215
*792 FILLER_1_247
*793 FILLER_1_263
*794 FILLER_1_271
*795 FILLER_1_4
*796 FILLER_1_69
*797 FILLER_1_73
*798 FILLER_20_127
*799 FILLER_20_153
*800 FILLER_20_176
*801 FILLER_20_193
*802 FILLER_20_246
*803 FILLER_20_273
*804 FILLER_20_33
*805 FILLER_20_37
*806 FILLER_20_41
*807 FILLER_20_83
*808 FILLER_21_141
*809 FILLER_21_206
*810 FILLER_21_25
*811 FILLER_21_272
*812 FILLER_21_274
*813 FILLER_21_277
*814 FILLER_22_183
*815 FILLER_22_206
*816 FILLER_22_218
*817 FILLER_22_22
*818 FILLER_22_243
*819 FILLER_22_247
*820 FILLER_22_255
*821 FILLER_22_257
*822 FILLER_22_266
*823 FILLER_22_268
*824 FILLER_22_32
*825 FILLER_22_34
*826 FILLER_22_37
*827 FILLER_22_41
*828 FILLER_2_105
*829 FILLER_2_167
*830 FILLER_2_176
*831 FILLER_2_223
*832 FILLER_2_239
*833 FILLER_2_247
*834 FILLER_2_250
*835 FILLER_2_266
*836 FILLER_2_274
*837 FILLER_2_278
*838 FILLER_2_280
*839 FILLER_2_49
*840 FILLER_3_105
*841 FILLER_3_122
*842 FILLER_3_139
*843 FILLER_3_141
*844 FILLER_3_212
*845 FILLER_3_227
*846 FILLER_3_259
*847 FILLER_3_275
*848 FILLER_3_279
*849 FILLER_3_70
*850 FILLER_4_181
*851 FILLER_4_224
*852 FILLER_4_240
*853 FILLER_4_250
*854 FILLER_4_266
*855 FILLER_4_274
*856 FILLER_4_278
*857 FILLER_4_280
*858 FILLER_4_69
*859 FILLER_4_71
*860 FILLER_5_14
*861 FILLER_5_140
*862 FILLER_5_150
*863 FILLER_5_227
*864 FILLER_5_23
*865 FILLER_5_259
*866 FILLER_5_267
*867 FILLER_5_271
*868 FILLER_5_70
*869 FILLER_5_73
*870 FILLER_6_108
*871 FILLER_6_163
*872 FILLER_6_174
*873 FILLER_6_176
*874 FILLER_6_185
*875 FILLER_6_228
*876 FILLER_6_244
*877 FILLER_6_250
*878 FILLER_6_266
*879 FILLER_6_274
*880 FILLER_6_278
*881 FILLER_6_280
*882 FILLER_6_49
*883 FILLER_6_51
*884 FILLER_6_99
*885 FILLER_7_144
*886 FILLER_7_154
*887 FILLER_7_167
*888 FILLER_7_169
*889 FILLER_7_233
*890 FILLER_7_265
*891 FILLER_7_73
*892 FILLER_7_8
*893 FILLER_7_81
*894 FILLER_8_116
*895 FILLER_8_135
*896 FILLER_8_157
*897 FILLER_8_172
*898 FILLER_8_176
*899 FILLER_8_179
*900 FILLER_8_201
*901 FILLER_8_225
*902 FILLER_8_241
*903 FILLER_8_245
*904 FILLER_8_247
*905 FILLER_8_250
*906 FILLER_8_266
*907 FILLER_8_274
*908 FILLER_8_278
*909 FILLER_8_280
*910 FILLER_8_54
*911 FILLER_8_59
*912 FILLER_8_79
*913 FILLER_8_81
*914 FILLER_9_107
*915 FILLER_9_14
*916 FILLER_9_170
*917 FILLER_9_179
*918 FILLER_9_181
*919 FILLER_9_212
*920 FILLER_9_232
*921 FILLER_9_264
*922 FILLER_9_280
*923 FILLER_9_36
*924 FILLER_9_51
*925 FILLER_9_58
*926 FILLER_9_70
*927 PHY_0
*928 PHY_1
*929 PHY_10
*930 PHY_11
*931 PHY_12
*932 PHY_13
*933 PHY_14
*934 PHY_15
*935 PHY_16
*936 PHY_17
*937 PHY_18
*938 PHY_19
*939 PHY_2
*940 PHY_20
*941 PHY_21
*942 PHY_22
*943 PHY_23
*944 PHY_24
*945 PHY_25
*946 PHY_26
*947 PHY_27
*948 PHY_28
*949 PHY_29
*950 PHY_3
*951 PHY_30
*952 PHY_31
*953 PHY_32
*954 PHY_33
*955 PHY_34
*956 PHY_35
*957 PHY_36
*958 PHY_37
*959 PHY_38
*960 PHY_39
*961 PHY_4
*962 PHY_40
*963 PHY_41
*964 PHY_42
*965 PHY_43
*966 PHY_44
*967 PHY_45
*968 PHY_5
*969 PHY_6
*970 PHY_7
*971 PHY_8
*972 PHY_9
*973 TAP_100
*974 TAP_101
*975 TAP_102
*976 TAP_103
*977 TAP_104
*978 TAP_105
*979 TAP_106
*980 TAP_107
*981 TAP_108
*982 TAP_109
*983 TAP_110
*984 TAP_111
*985 TAP_112
*986 TAP_113
*987 TAP_114
*988 TAP_115
*989 TAP_116
*990 TAP_117
*991 TAP_118
*992 TAP_119
*993 TAP_120
*994 TAP_121
*995 TAP_122
*996 TAP_123
*997 TAP_124
*998 TAP_125
*999 TAP_126
*1000 TAP_127
*1001 TAP_128
*1002 TAP_129
*1003 TAP_130
*1004 TAP_131
*1005 TAP_132
*1006 TAP_46
*1007 TAP_47
*1008 TAP_48
*1009 TAP_49
*1010 TAP_50
*1011 TAP_51
*1012 TAP_52
*1013 TAP_53
*1014 TAP_54
*1015 TAP_55
*1016 TAP_56
*1017 TAP_57
*1018 TAP_58
*1019 TAP_59
*1020 TAP_60
*1021 TAP_61
*1022 TAP_62
*1023 TAP_63
*1024 TAP_64
*1025 TAP_65
*1026 TAP_66
*1027 TAP_67
*1028 TAP_68
*1029 TAP_69
*1030 TAP_70
*1031 TAP_71
*1032 TAP_72
*1033 TAP_73
*1034 TAP_74
*1035 TAP_75
*1036 TAP_76
*1037 TAP_77
*1038 TAP_78
*1039 TAP_79
*1040 TAP_80
*1041 TAP_81
*1042 TAP_82
*1043 TAP_83
*1044 TAP_84
*1045 TAP_85
*1046 TAP_86
*1047 TAP_87
*1048 TAP_88
*1049 TAP_89
*1050 TAP_90
*1051 TAP_91
*1052 TAP_92
*1053 TAP_93
*1054 TAP_94
*1055 TAP_95
*1056 TAP_96
*1057 TAP_97
*1058 TAP_98
*1059 TAP_99
*1060 _318_
*1061 _319_
*1062 _320_
*1063 _321_
*1064 _322_
*1065 _323_
*1066 _324_
*1067 _325_
*1068 _326_
*1069 _327_
*1070 _328_
*1071 _329_
*1072 _330_
*1073 _331_
*1074 _332_
*1075 _333_
*1076 _334_
*1077 _335_
*1078 _336_
*1079 _337_
*1080 _338_
*1081 _339_
*1082 _340_
*1083 _341_
*1084 _342_
*1085 _343_
*1086 _344_
*1087 _345_
*1088 _346_
*1089 _347_
*1090 _348_
*1091 _349_
*1092 _350_
*1093 _351_
*1094 _352_
*1095 _353_
*1096 _354_
*1097 _355_
*1098 _356_
*1099 _357_
*1100 _358_
*1101 _359_
*1102 _360_
*1103 _361_
*1104 _362_
*1105 _363_
*1106 _364_
*1107 _365_
*1108 _366_
*1109 _367_
*1110 _368_
*1111 _369_
*1112 _370_
*1113 _371_
*1114 _372_
*1115 _373_
*1116 _374_
*1117 _375_
*1118 _376_
*1119 _377_
*1120 _378_
*1121 _379_
*1122 _380_
*1123 _381_
*1124 _382_
*1125 _383_
*1126 _384_
*1127 _385_
*1128 _386_
*1129 _387_
*1130 _388_
*1131 _389_
*1132 _390_
*1133 _391_
*1134 _392_
*1135 _393_
*1136 _394_
*1137 _395_
*1138 _396_
*1139 _397_
*1140 _398_
*1141 _399_
*1142 _400_
*1143 _401_
*1144 _402_
*1145 _403_
*1146 _404_
*1147 _405_
*1148 _406_
*1149 _407_
*1150 _408_
*1151 _409_
*1152 _410_
*1153 _411_
*1154 _412_
*1155 _413_
*1156 _414_
*1157 _415_
*1158 _416_
*1159 _417_
*1160 _418_
*1161 _419_
*1162 _420_
*1163 _421_
*1164 _422_
*1165 _423_
*1166 _424_
*1167 _425_
*1168 _426_
*1169 _427_
*1170 _428_
*1171 _429_
*1172 _430_
*1173 _431_
*1174 _432_
*1175 _433_
*1176 _434_
*1177 _435_
*1178 _436_
*1179 _437_
*1180 _438_
*1181 _439_
*1182 _440_
*1183 _441_
*1184 _442_
*1185 _443_
*1186 _444_
*1187 _445_
*1188 _446_
*1189 _447_
*1190 _448_
*1191 _449_
*1192 _450_
*1193 _451_
*1194 _452_
*1195 _453_
*1196 _454_
*1197 _455_
*1198 _456_
*1199 _457_
*1200 _458_
*1201 _459_
*1202 _460_
*1203 _461_
*1204 _462_
*1205 _463_
*1206 _464_
*1207 _465_
*1208 _466_
*1209 _467_
*1210 _468_
*1211 _469_
*1212 _470_
*1213 _471_
*1214 _472_
*1215 _473_
*1216 _474_
*1217 _475_
*1218 _476_
*1219 _477_
*1220 _478_
*1221 _479_
*1222 _480_
*1223 _481_
*1224 _482_
*1225 _483_
*1226 _484_
*1227 _485_
*1228 _486_
*1229 _487_
*1230 _488_
*1231 _489_
*1232 _490_
*1233 _491_
*1234 _492_
*1235 _493_
*1236 _494_
*1237 _495_
*1238 _496_
*1239 _497_
*1240 _498_
*1241 _499_
*1242 _500_
*1243 _501_
*1244 _502_
*1245 _503_
*1246 _504_
*1247 _505_
*1248 _506_
*1249 _507_
*1250 _508_
*1251 _509_
*1252 _510_
*1253 _511_
*1254 _512_
*1255 _513_
*1256 _514_
*1257 _515_
*1258 _516_
*1259 _517_
*1260 _518_
*1261 _519_
*1262 _520_
*1263 _521_
*1264 _522_
*1265 _523_
*1266 _524_
*1267 _525_
*1268 _526_
*1269 _527_
*1270 _528_
*1271 _529_
*1272 _530_
*1273 _531_
*1274 _532_
*1275 _533_
*1276 _534_
*1277 _535_
*1278 _536_
*1279 _537_
*1280 _538_
*1281 _539_
*1282 _540_
*1283 _541_
*1284 _542_
*1285 _543_
*1286 _544_
*1287 _545_
*1288 _546_
*1289 _547_
*1290 _548_
*1291 _549_
*1292 _550_
*1293 _551_
*1294 _552_
*1295 _553_
*1296 _554_
*1297 _555_
*1298 _556_
*1299 _557_
*1300 _558_
*1301 _559_
*1302 _560_
*1303 _561_
*1304 _562_
*1305 _563_
*1306 _564_
*1307 _565_
*1308 _566_
*1309 _567_
*1310 _568_
*1311 _569_
*1312 _570_
*1313 _571_
*1314 _572_
*1315 _573_
*1316 _574_
*1317 _575_
*1318 _576_
*1319 _577_
*1320 _578_
*1321 _579_
*1322 _580_
*1323 _581_
*1324 _582_
*1325 _583_
*1326 _584_
*1327 _585_
*1328 _586_
*1329 _587_
*1330 _588_
*1331 _589_
*1332 _590_
*1333 _591_
*1334 _592_
*1335 _593_
*1336 _594_
*1337 _595_
*1338 _596_
*1339 _597_
*1340 _598_
*1341 _599_
*1342 _600_
*1343 _601_
*1344 _602_
*1345 _603_
*1346 _604_
*1347 _605_
*1348 _606_
*1349 _607_
*1350 _608_
*1351 _609_
*1352 _610_
*1353 _611_
*1354 _612_
*1355 _613_
*1356 _614_
*1357 _615_
*1358 _616_
*1359 _617_
*1360 _618_
*1361 _619_
*1362 _620_
*1363 _621_
*1364 _622_
*1365 _623_
*1366 _624_
*1367 _625_
*1368 _626_
*1369 _627_
*1370 _628_
*1371 _629_
*1372 _630_
*1373 _631_
*1374 _632_
*1375 _633_
*1376 _634_
*1377 _635_
*1378 _636_
*1379 _637_
*1380 _638_
*1381 _639_
*1382 _640_
*1383 _641_
*1384 _642_
*1385 _643_
*1386 _644_
*1387 _645_
*1388 _646_
*1389 _647_
*1390 _648_
*1391 _649_
*1392 _650_
*1393 _651_
*1394 _652_
*1395 _653_
*1396 _654_
*1397 _655_
*1398 _656_
*1399 _657_
*1400 _658_
*1401 _659_
*1402 _660_
*1403 _661_
*1404 _662_
*1405 _663_
*1406 _664_
*1407 _665_
*1408 _666_
*1409 _667_
*1410 _668_
*1411 _669_
*1412 _670_
*1413 _671_
*1414 _672_
*1415 _673_
*1416 _674_
*1417 _675_
*1418 _676_
*1419 _677_
*1420 _678_
*1421 _679_
*1422 _680_
*1423 _681_
*1424 _682_
*1425 _683_
*1426 _684_
*1427 _685_
*1428 _686_
*1429 input1
*1430 input10
*1431 input11
*1432 input12
*1433 input13
*1434 input14
*1435 input15
*1436 input16
*1437 input17
*1438 input18
*1439 input19
*1440 input2
*1441 input20
*1442 input21
*1443 input22
*1444 input23
*1445 input24
*1446 input25
*1447 input26
*1448 input27
*1449 input28
*1450 input29
*1451 input3
*1452 input30
*1453 input31
*1454 input32
*1455 input33
*1456 input34
*1457 input35
*1458 input4
*1459 input5
*1460 input6
*1461 input7
*1462 input8
*1463 input9
*1464 output36
*1465 output37
*1466 rebuffer1
*1467 rebuffer2
*1468 ringosc\.dstage\[0\]\.id\.delaybuf0
*1469 ringosc\.dstage\[0\]\.id\.delaybuf1
*1470 ringosc\.dstage\[0\]\.id\.delayen0
*1471 ringosc\.dstage\[0\]\.id\.delayen1
*1472 ringosc\.dstage\[0\]\.id\.delayenb0
*1473 ringosc\.dstage\[0\]\.id\.delayenb1
*1474 ringosc\.dstage\[0\]\.id\.delayint0
*1475 ringosc\.dstage\[0\]\.id\.trim0bar
*1476 ringosc\.dstage\[0\]\.id\.trim1bar
*1477 ringosc\.dstage\[10\]\.id\.delaybuf0
*1478 ringosc\.dstage\[10\]\.id\.delaybuf1
*1479 ringosc\.dstage\[10\]\.id\.delayen0
*1480 ringosc\.dstage\[10\]\.id\.delayen1
*1481 ringosc\.dstage\[10\]\.id\.delayenb0
*1482 ringosc\.dstage\[10\]\.id\.delayenb1
*1483 ringosc\.dstage\[10\]\.id\.delayint0
*1484 ringosc\.dstage\[10\]\.id\.trim0bar
*1485 ringosc\.dstage\[10\]\.id\.trim1bar
*1486 ringosc\.dstage\[11\]\.id\.delaybuf0
*1487 ringosc\.dstage\[11\]\.id\.delaybuf1
*1488 ringosc\.dstage\[11\]\.id\.delayen0
*1489 ringosc\.dstage\[11\]\.id\.delayen1
*1490 ringosc\.dstage\[11\]\.id\.delayenb0
*1491 ringosc\.dstage\[11\]\.id\.delayenb1
*1492 ringosc\.dstage\[11\]\.id\.delayint0
*1493 ringosc\.dstage\[11\]\.id\.trim0bar
*1494 ringosc\.dstage\[11\]\.id\.trim1bar
*1495 ringosc\.dstage\[1\]\.id\.delaybuf0
*1496 ringosc\.dstage\[1\]\.id\.delaybuf1
*1497 ringosc\.dstage\[1\]\.id\.delayen0
*1498 ringosc\.dstage\[1\]\.id\.delayen1
*1499 ringosc\.dstage\[1\]\.id\.delayenb0
*1500 ringosc\.dstage\[1\]\.id\.delayenb1
*1501 ringosc\.dstage\[1\]\.id\.delayint0
*1502 ringosc\.dstage\[1\]\.id\.trim0bar
*1503 ringosc\.dstage\[1\]\.id\.trim1bar
*1504 ringosc\.dstage\[2\]\.id\.delaybuf0
*1505 ringosc\.dstage\[2\]\.id\.delaybuf1
*1506 ringosc\.dstage\[2\]\.id\.delayen0
*1507 ringosc\.dstage\[2\]\.id\.delayen1
*1508 ringosc\.dstage\[2\]\.id\.delayenb0
*1509 ringosc\.dstage\[2\]\.id\.delayenb1
*1510 ringosc\.dstage\[2\]\.id\.delayint0
*1511 ringosc\.dstage\[2\]\.id\.trim0bar
*1512 ringosc\.dstage\[2\]\.id\.trim1bar
*1513 ringosc\.dstage\[3\]\.id\.delaybuf0
*1514 ringosc\.dstage\[3\]\.id\.delaybuf1
*1515 ringosc\.dstage\[3\]\.id\.delayen0
*1516 ringosc\.dstage\[3\]\.id\.delayen1
*1517 ringosc\.dstage\[3\]\.id\.delayenb0
*1518 ringosc\.dstage\[3\]\.id\.delayenb1
*1519 ringosc\.dstage\[3\]\.id\.delayint0
*1520 ringosc\.dstage\[3\]\.id\.trim0bar
*1521 ringosc\.dstage\[3\]\.id\.trim1bar
*1522 ringosc\.dstage\[4\]\.id\.delaybuf0
*1523 ringosc\.dstage\[4\]\.id\.delaybuf1
*1524 ringosc\.dstage\[4\]\.id\.delayen0
*1525 ringosc\.dstage\[4\]\.id\.delayen1
*1526 ringosc\.dstage\[4\]\.id\.delayenb0
*1527 ringosc\.dstage\[4\]\.id\.delayenb1
*1528 ringosc\.dstage\[4\]\.id\.delayint0
*1529 ringosc\.dstage\[4\]\.id\.trim0bar
*1530 ringosc\.dstage\[4\]\.id\.trim1bar
*1531 ringosc\.dstage\[5\]\.id\.delaybuf0
*1532 ringosc\.dstage\[5\]\.id\.delaybuf1
*1533 ringosc\.dstage\[5\]\.id\.delayen0
*1534 ringosc\.dstage\[5\]\.id\.delayen1
*1535 ringosc\.dstage\[5\]\.id\.delayenb0
*1536 ringosc\.dstage\[5\]\.id\.delayenb1
*1537 ringosc\.dstage\[5\]\.id\.delayint0
*1538 ringosc\.dstage\[5\]\.id\.trim0bar
*1539 ringosc\.dstage\[5\]\.id\.trim1bar
*1540 ringosc\.dstage\[6\]\.id\.delaybuf0
*1541 ringosc\.dstage\[6\]\.id\.delaybuf1
*1542 ringosc\.dstage\[6\]\.id\.delayen0
*1543 ringosc\.dstage\[6\]\.id\.delayen1
*1544 ringosc\.dstage\[6\]\.id\.delayenb0
*1545 ringosc\.dstage\[6\]\.id\.delayenb1
*1546 ringosc\.dstage\[6\]\.id\.delayint0
*1547 ringosc\.dstage\[6\]\.id\.trim0bar
*1548 ringosc\.dstage\[6\]\.id\.trim1bar
*1549 ringosc\.dstage\[7\]\.id\.delaybuf0
*1550 ringosc\.dstage\[7\]\.id\.delaybuf1
*1551 ringosc\.dstage\[7\]\.id\.delayen0
*1552 ringosc\.dstage\[7\]\.id\.delayen1
*1553 ringosc\.dstage\[7\]\.id\.delayenb0
*1554 ringosc\.dstage\[7\]\.id\.delayenb1
*1555 ringosc\.dstage\[7\]\.id\.delayint0
*1556 ringosc\.dstage\[7\]\.id\.trim0bar
*1557 ringosc\.dstage\[7\]\.id\.trim1bar
*1558 ringosc\.dstage\[8\]\.id\.delaybuf0
*1559 ringosc\.dstage\[8\]\.id\.delaybuf1
*1560 ringosc\.dstage\[8\]\.id\.delayen0
*1561 ringosc\.dstage\[8\]\.id\.delayen1
*1562 ringosc\.dstage\[8\]\.id\.delayenb0
*1563 ringosc\.dstage\[8\]\.id\.delayenb1
*1564 ringosc\.dstage\[8\]\.id\.delayint0
*1565 ringosc\.dstage\[8\]\.id\.trim0bar
*1566 ringosc\.dstage\[8\]\.id\.trim1bar
*1567 ringosc\.dstage\[9\]\.id\.delaybuf0
*1568 ringosc\.dstage\[9\]\.id\.delaybuf1
*1569 ringosc\.dstage\[9\]\.id\.delayen0
*1570 ringosc\.dstage\[9\]\.id\.delayen1
*1571 ringosc\.dstage\[9\]\.id\.delayenb0
*1572 ringosc\.dstage\[9\]\.id\.delayenb1
*1573 ringosc\.dstage\[9\]\.id\.delayint0
*1574 ringosc\.dstage\[9\]\.id\.trim0bar
*1575 ringosc\.dstage\[9\]\.id\.trim1bar
*1576 ringosc\.ibufp00
*1577 ringosc\.ibufp01
*1578 ringosc\.ibufp10
*1579 ringosc\.ibufp11
*1580 ringosc\.iss\.ctrlen0
*1581 ringosc\.iss\.delaybuf0
*1582 ringosc\.iss\.delayen0
*1583 ringosc\.iss\.delayen1
*1584 ringosc\.iss\.delayenb0
*1585 ringosc\.iss\.delayenb1
*1586 ringosc\.iss\.delayint0
*1587 ringosc\.iss\.reseten0
*1588 ringosc\.iss\.reseten0_38
*1589 ringosc\.iss\.trim1bar

*PORTS
clockp[0] O
clockp[1] O
dco I
div[0] I
div[1] I
div[2] I
div[3] I
div[4] I
enable I
ext_trim[0] I
ext_trim[10] I
ext_trim[11] I
ext_trim[12] I
ext_trim[13] I
ext_trim[14] I
ext_trim[15] I
ext_trim[16] I
ext_trim[17] I
ext_trim[18] I
ext_trim[19] I
ext_trim[1] I
ext_trim[20] I
ext_trim[21] I
ext_trim[22] I
ext_trim[23] I
ext_trim[24] I
ext_trim[25] I
ext_trim[2] I
ext_trim[3] I
ext_trim[4] I
ext_trim[5] I
ext_trim[6] I
ext_trim[7] I
ext_trim[8] I
ext_trim[9] I
osc I
resetb I

*D_NET *3 0.00247135
*CONN
*P clockp[0] O
*I *1464:Z O *D gf180mcu_fd_sc_mcu7t5v0__clkbuf_4
*CAP
1 clockp[0] 0.000791348
2 *1464:Z 0.000791348
3 clockp[0] clockp[1] 4.04104e-05
4 clockp[0] *1085:A2 0.000683868
5 clockp[0] *1109:B2 0
6 clockp[0] *1114:A1 0
7 clockp[0] *1465:I 8.89948e-05
8 clockp[0] *6:11 6.29468e-05
9 clockp[0] *101:14 1.2434e-05
*RES
1 *1464:Z clockp[0] 25.425 
*END

*D_NET *4 0.00126697
*CONN
*P clockp[1] O
*I *1465:Z O *D gf180mcu_fd_sc_mcu7t5v0__buf_8
*CAP
1 clockp[1] 0.000467179
2 *1465:Z 0.000467179
3 clockp[1] *1465:I 0
4 clockp[1] *8:15 0.000254896
5 clockp[1] *101:14 3.73018e-05
6 clockp[0] clockp[1] 4.04104e-05
*RES
1 *1465:Z clockp[1] 13.815 
*END
