*SPEF "ieee 1481-1999"
*DESIGN "mgmt_protect"
*DATE "11:11:11 Fri 11 11, 1111"
*VENDOR "OpenRCX"
*PROGRAM "Parallel Extraction"
*VERSION "1.0"
*DESIGN_FLOW "NAME_SCOPE LOCAL" "PIN_CAP NONE"
*DIVIDER /
*DELIMITER :
*BUS_DELIMITER []
*T_UNIT 1 NS
*C_UNIT 1 PF
*R_UNIT 1 OHM
*L_UNIT 1 HENRY

*NAME_MAP
*3 caravel_clk
*4 caravel_clk2
*5 caravel_rstn
*6 la_data_in_core[0]
*7 la_data_in_core[10]
*8 la_data_in_core[11]
*9 la_data_in_core[12]
*10 la_data_in_core[13]
*11 la_data_in_core[14]
*12 la_data_in_core[15]
*13 la_data_in_core[16]
*14 la_data_in_core[17]
*15 la_data_in_core[18]
*16 la_data_in_core[19]
*17 la_data_in_core[1]
*18 la_data_in_core[20]
*19 la_data_in_core[21]
*20 la_data_in_core[22]
*21 la_data_in_core[23]
*22 la_data_in_core[24]
*23 la_data_in_core[25]
*24 la_data_in_core[26]
*25 la_data_in_core[27]
*26 la_data_in_core[28]
*27 la_data_in_core[29]
*28 la_data_in_core[2]
*29 la_data_in_core[30]
*30 la_data_in_core[31]
*31 la_data_in_core[32]
*32 la_data_in_core[33]
*33 la_data_in_core[34]
*34 la_data_in_core[35]
*35 la_data_in_core[36]
*36 la_data_in_core[37]
*37 la_data_in_core[38]
*38 la_data_in_core[39]
*39 la_data_in_core[3]
*40 la_data_in_core[40]
*41 la_data_in_core[41]
*42 la_data_in_core[42]
*43 la_data_in_core[43]
*44 la_data_in_core[44]
*45 la_data_in_core[45]
*46 la_data_in_core[46]
*47 la_data_in_core[47]
*48 la_data_in_core[48]
*49 la_data_in_core[49]
*50 la_data_in_core[4]
*51 la_data_in_core[50]
*52 la_data_in_core[51]
*53 la_data_in_core[52]
*54 la_data_in_core[53]
*55 la_data_in_core[54]
*56 la_data_in_core[55]
*57 la_data_in_core[56]
*58 la_data_in_core[57]
*59 la_data_in_core[58]
*60 la_data_in_core[59]
*61 la_data_in_core[5]
*62 la_data_in_core[60]
*63 la_data_in_core[61]
*64 la_data_in_core[62]
*65 la_data_in_core[63]
*66 la_data_in_core[6]
*67 la_data_in_core[7]
*68 la_data_in_core[8]
*69 la_data_in_core[9]
*70 la_data_in_mprj[0]
*71 la_data_in_mprj[10]
*72 la_data_in_mprj[11]
*73 la_data_in_mprj[12]
*74 la_data_in_mprj[13]
*75 la_data_in_mprj[14]
*76 la_data_in_mprj[15]
*77 la_data_in_mprj[16]
*78 la_data_in_mprj[17]
*79 la_data_in_mprj[18]
*80 la_data_in_mprj[19]
*81 la_data_in_mprj[1]
*82 la_data_in_mprj[20]
*83 la_data_in_mprj[21]
*84 la_data_in_mprj[22]
*85 la_data_in_mprj[23]
*86 la_data_in_mprj[24]
*87 la_data_in_mprj[25]
*88 la_data_in_mprj[26]
*89 la_data_in_mprj[27]
*90 la_data_in_mprj[28]
*91 la_data_in_mprj[29]
*92 la_data_in_mprj[2]
*93 la_data_in_mprj[30]
*94 la_data_in_mprj[31]
*95 la_data_in_mprj[32]
*96 la_data_in_mprj[33]
*97 la_data_in_mprj[34]
*98 la_data_in_mprj[35]
*99 la_data_in_mprj[36]
*100 la_data_in_mprj[37]
*101 la_data_in_mprj[38]
*102 la_data_in_mprj[39]
*103 la_data_in_mprj[3]
*104 la_data_in_mprj[40]
*105 la_data_in_mprj[41]
*106 la_data_in_mprj[42]
*107 la_data_in_mprj[43]
*108 la_data_in_mprj[44]
*109 la_data_in_mprj[45]
*110 la_data_in_mprj[46]
*111 la_data_in_mprj[47]
*112 la_data_in_mprj[48]
*113 la_data_in_mprj[49]
*114 la_data_in_mprj[4]
*115 la_data_in_mprj[50]
*116 la_data_in_mprj[51]
*117 la_data_in_mprj[52]
*118 la_data_in_mprj[53]
*119 la_data_in_mprj[54]
*120 la_data_in_mprj[55]
*121 la_data_in_mprj[56]
*122 la_data_in_mprj[57]
*123 la_data_in_mprj[58]
*124 la_data_in_mprj[59]
*125 la_data_in_mprj[5]
*126 la_data_in_mprj[60]
*127 la_data_in_mprj[61]
*128 la_data_in_mprj[62]
*129 la_data_in_mprj[63]
*130 la_data_in_mprj[6]
*131 la_data_in_mprj[7]
*132 la_data_in_mprj[8]
*133 la_data_in_mprj[9]
*134 la_data_out_core[0]
*135 la_data_out_core[10]
*136 la_data_out_core[11]
*137 la_data_out_core[12]
*138 la_data_out_core[13]
*139 la_data_out_core[14]
*140 la_data_out_core[15]
*141 la_data_out_core[16]
*142 la_data_out_core[17]
*143 la_data_out_core[18]
*144 la_data_out_core[19]
*145 la_data_out_core[1]
*146 la_data_out_core[20]
*147 la_data_out_core[21]
*148 la_data_out_core[22]
*149 la_data_out_core[23]
*150 la_data_out_core[24]
*151 la_data_out_core[25]
*152 la_data_out_core[26]
*153 la_data_out_core[27]
*154 la_data_out_core[28]
*155 la_data_out_core[29]
*156 la_data_out_core[2]
*157 la_data_out_core[30]
*158 la_data_out_core[31]
*159 la_data_out_core[32]
*160 la_data_out_core[33]
*161 la_data_out_core[34]
*162 la_data_out_core[35]
*163 la_data_out_core[36]
*164 la_data_out_core[37]
*165 la_data_out_core[38]
*166 la_data_out_core[39]
*167 la_data_out_core[3]
*168 la_data_out_core[40]
*169 la_data_out_core[41]
*170 la_data_out_core[42]
*171 la_data_out_core[43]
*172 la_data_out_core[44]
*173 la_data_out_core[45]
*174 la_data_out_core[46]
*175 la_data_out_core[47]
*176 la_data_out_core[48]
*177 la_data_out_core[49]
*178 la_data_out_core[4]
*179 la_data_out_core[50]
*180 la_data_out_core[51]
*181 la_data_out_core[52]
*182 la_data_out_core[53]
*183 la_data_out_core[54]
*184 la_data_out_core[55]
*185 la_data_out_core[56]
*186 la_data_out_core[57]
*187 la_data_out_core[58]
*188 la_data_out_core[59]
*189 la_data_out_core[5]
*190 la_data_out_core[60]
*191 la_data_out_core[61]
*192 la_data_out_core[62]
*193 la_data_out_core[63]
*194 la_data_out_core[6]
*195 la_data_out_core[7]
*196 la_data_out_core[8]
*197 la_data_out_core[9]
*198 la_data_out_mprj[0]
*199 la_data_out_mprj[10]
*200 la_data_out_mprj[11]
*201 la_data_out_mprj[12]
*202 la_data_out_mprj[13]
*203 la_data_out_mprj[14]
*204 la_data_out_mprj[15]
*205 la_data_out_mprj[16]
*206 la_data_out_mprj[17]
*207 la_data_out_mprj[18]
*208 la_data_out_mprj[19]
*209 la_data_out_mprj[1]
*210 la_data_out_mprj[20]
*211 la_data_out_mprj[21]
*212 la_data_out_mprj[22]
*213 la_data_out_mprj[23]
*214 la_data_out_mprj[24]
*215 la_data_out_mprj[25]
*216 la_data_out_mprj[26]
*217 la_data_out_mprj[27]
*218 la_data_out_mprj[28]
*219 la_data_out_mprj[29]
*220 la_data_out_mprj[2]
*221 la_data_out_mprj[30]
*222 la_data_out_mprj[31]
*223 la_data_out_mprj[32]
*224 la_data_out_mprj[33]
*225 la_data_out_mprj[34]
*226 la_data_out_mprj[35]
*227 la_data_out_mprj[36]
*228 la_data_out_mprj[37]
*229 la_data_out_mprj[38]
*230 la_data_out_mprj[39]
*231 la_data_out_mprj[3]
*232 la_data_out_mprj[40]
*233 la_data_out_mprj[41]
*234 la_data_out_mprj[42]
*235 la_data_out_mprj[43]
*236 la_data_out_mprj[44]
*237 la_data_out_mprj[45]
*238 la_data_out_mprj[46]
*239 la_data_out_mprj[47]
*240 la_data_out_mprj[48]
*241 la_data_out_mprj[49]
*242 la_data_out_mprj[4]
*243 la_data_out_mprj[50]
*244 la_data_out_mprj[51]
*245 la_data_out_mprj[52]
*246 la_data_out_mprj[53]
*247 la_data_out_mprj[54]
*248 la_data_out_mprj[55]
*249 la_data_out_mprj[56]
*250 la_data_out_mprj[57]
*251 la_data_out_mprj[58]
*252 la_data_out_mprj[59]
*253 la_data_out_mprj[5]
*254 la_data_out_mprj[60]
*255 la_data_out_mprj[61]
*256 la_data_out_mprj[62]
*257 la_data_out_mprj[63]
*258 la_data_out_mprj[6]
*259 la_data_out_mprj[7]
*260 la_data_out_mprj[8]
*261 la_data_out_mprj[9]
*262 la_iena_mprj[0]
*263 la_iena_mprj[10]
*264 la_iena_mprj[11]
*265 la_iena_mprj[12]
*266 la_iena_mprj[13]
*267 la_iena_mprj[14]
*268 la_iena_mprj[15]
*269 la_iena_mprj[16]
*270 la_iena_mprj[17]
*271 la_iena_mprj[18]
*272 la_iena_mprj[19]
*273 la_iena_mprj[1]
*274 la_iena_mprj[20]
*275 la_iena_mprj[21]
*276 la_iena_mprj[22]
*277 la_iena_mprj[23]
*278 la_iena_mprj[24]
*279 la_iena_mprj[25]
*280 la_iena_mprj[26]
*281 la_iena_mprj[27]
*282 la_iena_mprj[28]
*283 la_iena_mprj[29]
*284 la_iena_mprj[2]
*285 la_iena_mprj[30]
*286 la_iena_mprj[31]
*287 la_iena_mprj[32]
*288 la_iena_mprj[33]
*289 la_iena_mprj[34]
*290 la_iena_mprj[35]
*291 la_iena_mprj[36]
*292 la_iena_mprj[37]
*293 la_iena_mprj[38]
*294 la_iena_mprj[39]
*295 la_iena_mprj[3]
*296 la_iena_mprj[40]
*297 la_iena_mprj[41]
*298 la_iena_mprj[42]
*299 la_iena_mprj[43]
*300 la_iena_mprj[44]
*301 la_iena_mprj[45]
*302 la_iena_mprj[46]
*303 la_iena_mprj[47]
*304 la_iena_mprj[48]
*305 la_iena_mprj[49]
*306 la_iena_mprj[4]
*307 la_iena_mprj[50]
*308 la_iena_mprj[51]
*309 la_iena_mprj[52]
*310 la_iena_mprj[53]
*311 la_iena_mprj[54]
*312 la_iena_mprj[55]
*313 la_iena_mprj[56]
*314 la_iena_mprj[57]
*315 la_iena_mprj[58]
*316 la_iena_mprj[59]
*317 la_iena_mprj[5]
*318 la_iena_mprj[60]
*319 la_iena_mprj[61]
*320 la_iena_mprj[62]
*321 la_iena_mprj[63]
*322 la_iena_mprj[6]
*323 la_iena_mprj[7]
*324 la_iena_mprj[8]
*325 la_iena_mprj[9]
*326 la_oenb_core[0]
*327 la_oenb_core[10]
*328 la_oenb_core[11]
*329 la_oenb_core[12]
*330 la_oenb_core[13]
*331 la_oenb_core[14]
*332 la_oenb_core[15]
*333 la_oenb_core[16]
*334 la_oenb_core[17]
*335 la_oenb_core[18]
*336 la_oenb_core[19]
*337 la_oenb_core[1]
*338 la_oenb_core[20]
*339 la_oenb_core[21]
*340 la_oenb_core[22]
*341 la_oenb_core[23]
*342 la_oenb_core[24]
*343 la_oenb_core[25]
*344 la_oenb_core[26]
*345 la_oenb_core[27]
*346 la_oenb_core[28]
*347 la_oenb_core[29]
*348 la_oenb_core[2]
*349 la_oenb_core[30]
*350 la_oenb_core[31]
*351 la_oenb_core[32]
*352 la_oenb_core[33]
*353 la_oenb_core[34]
*354 la_oenb_core[35]
*355 la_oenb_core[36]
*356 la_oenb_core[37]
*357 la_oenb_core[38]
*358 la_oenb_core[39]
*359 la_oenb_core[3]
*360 la_oenb_core[40]
*361 la_oenb_core[41]
*362 la_oenb_core[42]
*363 la_oenb_core[43]
*364 la_oenb_core[44]
*365 la_oenb_core[45]
*366 la_oenb_core[46]
*367 la_oenb_core[47]
*368 la_oenb_core[48]
*369 la_oenb_core[49]
*370 la_oenb_core[4]
*371 la_oenb_core[50]
*372 la_oenb_core[51]
*373 la_oenb_core[52]
*374 la_oenb_core[53]
*375 la_oenb_core[54]
*376 la_oenb_core[55]
*377 la_oenb_core[56]
*378 la_oenb_core[57]
*379 la_oenb_core[58]
*380 la_oenb_core[59]
*381 la_oenb_core[5]
*382 la_oenb_core[60]
*383 la_oenb_core[61]
*384 la_oenb_core[62]
*385 la_oenb_core[63]
*386 la_oenb_core[6]
*387 la_oenb_core[7]
*388 la_oenb_core[8]
*389 la_oenb_core[9]
*390 la_oenb_mprj[0]
*391 la_oenb_mprj[10]
*392 la_oenb_mprj[11]
*393 la_oenb_mprj[12]
*394 la_oenb_mprj[13]
*395 la_oenb_mprj[14]
*396 la_oenb_mprj[15]
*397 la_oenb_mprj[16]
*398 la_oenb_mprj[17]
*399 la_oenb_mprj[18]
*400 la_oenb_mprj[19]
*401 la_oenb_mprj[1]
*402 la_oenb_mprj[20]
*403 la_oenb_mprj[21]
*404 la_oenb_mprj[22]
*405 la_oenb_mprj[23]
*406 la_oenb_mprj[24]
*407 la_oenb_mprj[25]
*408 la_oenb_mprj[26]
*409 la_oenb_mprj[27]
*410 la_oenb_mprj[28]
*411 la_oenb_mprj[29]
*412 la_oenb_mprj[2]
*413 la_oenb_mprj[30]
*414 la_oenb_mprj[31]
*415 la_oenb_mprj[32]
*416 la_oenb_mprj[33]
*417 la_oenb_mprj[34]
*418 la_oenb_mprj[35]
*419 la_oenb_mprj[36]
*420 la_oenb_mprj[37]
*421 la_oenb_mprj[38]
*422 la_oenb_mprj[39]
*423 la_oenb_mprj[3]
*424 la_oenb_mprj[40]
*425 la_oenb_mprj[41]
*426 la_oenb_mprj[42]
*427 la_oenb_mprj[43]
*428 la_oenb_mprj[44]
*429 la_oenb_mprj[45]
*430 la_oenb_mprj[46]
*431 la_oenb_mprj[47]
*432 la_oenb_mprj[48]
*433 la_oenb_mprj[49]
*434 la_oenb_mprj[4]
*435 la_oenb_mprj[50]
*436 la_oenb_mprj[51]
*437 la_oenb_mprj[52]
*438 la_oenb_mprj[53]
*439 la_oenb_mprj[54]
*440 la_oenb_mprj[55]
*441 la_oenb_mprj[56]
*442 la_oenb_mprj[57]
*443 la_oenb_mprj[58]
*444 la_oenb_mprj[59]
*445 la_oenb_mprj[5]
*446 la_oenb_mprj[60]
*447 la_oenb_mprj[61]
*448 la_oenb_mprj[62]
*449 la_oenb_mprj[63]
*450 la_oenb_mprj[6]
*451 la_oenb_mprj[7]
*452 la_oenb_mprj[8]
*453 la_oenb_mprj[9]
*454 mprj_ack_i_core
*455 mprj_ack_i_user
*456 mprj_adr_o_core[0]
*457 mprj_adr_o_core[10]
*458 mprj_adr_o_core[11]
*459 mprj_adr_o_core[12]
*460 mprj_adr_o_core[13]
*461 mprj_adr_o_core[14]
*462 mprj_adr_o_core[15]
*463 mprj_adr_o_core[16]
*464 mprj_adr_o_core[17]
*465 mprj_adr_o_core[18]
*466 mprj_adr_o_core[19]
*467 mprj_adr_o_core[1]
*468 mprj_adr_o_core[20]
*469 mprj_adr_o_core[21]
*470 mprj_adr_o_core[22]
*471 mprj_adr_o_core[23]
*472 mprj_adr_o_core[24]
*473 mprj_adr_o_core[25]
*474 mprj_adr_o_core[26]
*475 mprj_adr_o_core[27]
*476 mprj_adr_o_core[28]
*477 mprj_adr_o_core[29]
*478 mprj_adr_o_core[2]
*479 mprj_adr_o_core[30]
*480 mprj_adr_o_core[31]
*481 mprj_adr_o_core[3]
*482 mprj_adr_o_core[4]
*483 mprj_adr_o_core[5]
*484 mprj_adr_o_core[6]
*485 mprj_adr_o_core[7]
*486 mprj_adr_o_core[8]
*487 mprj_adr_o_core[9]
*488 mprj_adr_o_user[0]
*489 mprj_adr_o_user[10]
*490 mprj_adr_o_user[11]
*491 mprj_adr_o_user[12]
*492 mprj_adr_o_user[13]
*493 mprj_adr_o_user[14]
*494 mprj_adr_o_user[15]
*495 mprj_adr_o_user[16]
*496 mprj_adr_o_user[17]
*497 mprj_adr_o_user[18]
*498 mprj_adr_o_user[19]
*499 mprj_adr_o_user[1]
*500 mprj_adr_o_user[20]
*501 mprj_adr_o_user[21]
*502 mprj_adr_o_user[22]
*503 mprj_adr_o_user[23]
*504 mprj_adr_o_user[24]
*505 mprj_adr_o_user[25]
*506 mprj_adr_o_user[26]
*507 mprj_adr_o_user[27]
*508 mprj_adr_o_user[28]
*509 mprj_adr_o_user[29]
*510 mprj_adr_o_user[2]
*511 mprj_adr_o_user[30]
*512 mprj_adr_o_user[31]
*513 mprj_adr_o_user[3]
*514 mprj_adr_o_user[4]
*515 mprj_adr_o_user[5]
*516 mprj_adr_o_user[6]
*517 mprj_adr_o_user[7]
*518 mprj_adr_o_user[8]
*519 mprj_adr_o_user[9]
*520 mprj_cyc_o_core
*521 mprj_cyc_o_user
*522 mprj_dat_i_core[0]
*523 mprj_dat_i_core[10]
*524 mprj_dat_i_core[11]
*525 mprj_dat_i_core[12]
*526 mprj_dat_i_core[13]
*527 mprj_dat_i_core[14]
*528 mprj_dat_i_core[15]
*529 mprj_dat_i_core[16]
*530 mprj_dat_i_core[17]
*531 mprj_dat_i_core[18]
*532 mprj_dat_i_core[19]
*533 mprj_dat_i_core[1]
*534 mprj_dat_i_core[20]
*535 mprj_dat_i_core[21]
*536 mprj_dat_i_core[22]
*537 mprj_dat_i_core[23]
*538 mprj_dat_i_core[24]
*539 mprj_dat_i_core[25]
*540 mprj_dat_i_core[26]
*541 mprj_dat_i_core[27]
*542 mprj_dat_i_core[28]
*543 mprj_dat_i_core[29]
*544 mprj_dat_i_core[2]
*545 mprj_dat_i_core[30]
*546 mprj_dat_i_core[31]
*547 mprj_dat_i_core[3]
*548 mprj_dat_i_core[4]
*549 mprj_dat_i_core[5]
*550 mprj_dat_i_core[6]
*551 mprj_dat_i_core[7]
*552 mprj_dat_i_core[8]
*553 mprj_dat_i_core[9]
*554 mprj_dat_i_user[0]
*555 mprj_dat_i_user[10]
*556 mprj_dat_i_user[11]
*557 mprj_dat_i_user[12]
*558 mprj_dat_i_user[13]
*559 mprj_dat_i_user[14]
*560 mprj_dat_i_user[15]
*561 mprj_dat_i_user[16]
*562 mprj_dat_i_user[17]
*563 mprj_dat_i_user[18]
*564 mprj_dat_i_user[19]
*565 mprj_dat_i_user[1]
*566 mprj_dat_i_user[20]
*567 mprj_dat_i_user[21]
*568 mprj_dat_i_user[22]
*569 mprj_dat_i_user[23]
*570 mprj_dat_i_user[24]
*571 mprj_dat_i_user[25]
*572 mprj_dat_i_user[26]
*573 mprj_dat_i_user[27]
*574 mprj_dat_i_user[28]
*575 mprj_dat_i_user[29]
*576 mprj_dat_i_user[2]
*577 mprj_dat_i_user[30]
*578 mprj_dat_i_user[31]
*579 mprj_dat_i_user[3]
*580 mprj_dat_i_user[4]
*581 mprj_dat_i_user[5]
*582 mprj_dat_i_user[6]
*583 mprj_dat_i_user[7]
*584 mprj_dat_i_user[8]
*585 mprj_dat_i_user[9]
*586 mprj_dat_o_core[0]
*587 mprj_dat_o_core[10]
*588 mprj_dat_o_core[11]
*589 mprj_dat_o_core[12]
*590 mprj_dat_o_core[13]
*591 mprj_dat_o_core[14]
*592 mprj_dat_o_core[15]
*593 mprj_dat_o_core[16]
*594 mprj_dat_o_core[17]
*595 mprj_dat_o_core[18]
*596 mprj_dat_o_core[19]
*597 mprj_dat_o_core[1]
*598 mprj_dat_o_core[20]
*599 mprj_dat_o_core[21]
*600 mprj_dat_o_core[22]
*601 mprj_dat_o_core[23]
*602 mprj_dat_o_core[24]
*603 mprj_dat_o_core[25]
*604 mprj_dat_o_core[26]
*605 mprj_dat_o_core[27]
*606 mprj_dat_o_core[28]
*607 mprj_dat_o_core[29]
*608 mprj_dat_o_core[2]
*609 mprj_dat_o_core[30]
*610 mprj_dat_o_core[31]
*611 mprj_dat_o_core[3]
*612 mprj_dat_o_core[4]
*613 mprj_dat_o_core[5]
*614 mprj_dat_o_core[6]
*615 mprj_dat_o_core[7]
*616 mprj_dat_o_core[8]
*617 mprj_dat_o_core[9]
*618 mprj_dat_o_user[0]
*619 mprj_dat_o_user[10]
*620 mprj_dat_o_user[11]
*621 mprj_dat_o_user[12]
*622 mprj_dat_o_user[13]
*623 mprj_dat_o_user[14]
*624 mprj_dat_o_user[15]
*625 mprj_dat_o_user[16]
*626 mprj_dat_o_user[17]
*627 mprj_dat_o_user[18]
*628 mprj_dat_o_user[19]
*629 mprj_dat_o_user[1]
*630 mprj_dat_o_user[20]
*631 mprj_dat_o_user[21]
*632 mprj_dat_o_user[22]
*633 mprj_dat_o_user[23]
*634 mprj_dat_o_user[24]
*635 mprj_dat_o_user[25]
*636 mprj_dat_o_user[26]
*637 mprj_dat_o_user[27]
*638 mprj_dat_o_user[28]
*639 mprj_dat_o_user[29]
*640 mprj_dat_o_user[2]
*641 mprj_dat_o_user[30]
*642 mprj_dat_o_user[31]
*643 mprj_dat_o_user[3]
*644 mprj_dat_o_user[4]
*645 mprj_dat_o_user[5]
*646 mprj_dat_o_user[6]
*647 mprj_dat_o_user[7]
*648 mprj_dat_o_user[8]
*649 mprj_dat_o_user[9]
*650 mprj_iena_wb
*651 mprj_sel_o_core[0]
*652 mprj_sel_o_core[1]
*653 mprj_sel_o_core[2]
*654 mprj_sel_o_core[3]
*655 mprj_sel_o_user[0]
*656 mprj_sel_o_user[1]
*657 mprj_sel_o_user[2]
*658 mprj_sel_o_user[3]
*659 mprj_stb_o_core
*660 mprj_stb_o_user
*661 mprj_we_o_core
*662 mprj_we_o_user
*663 user_clock
*664 user_clock2
*665 user_irq[0]
*666 user_irq[1]
*667 user_irq[2]
*668 user_irq_core[0]
*669 user_irq_core[1]
*670 user_irq_core[2]
*671 user_irq_ena[0]
*672 user_irq_ena[1]
*673 user_irq_ena[2]
*674 user_reset
*675 la_data_in_mprj_bar\[0\]
*676 la_data_in_mprj_bar\[10\]
*677 la_data_in_mprj_bar\[11\]
*678 la_data_in_mprj_bar\[12\]
*679 la_data_in_mprj_bar\[13\]
*680 la_data_in_mprj_bar\[14\]
*681 la_data_in_mprj_bar\[15\]
*682 la_data_in_mprj_bar\[16\]
*683 la_data_in_mprj_bar\[17\]
*684 la_data_in_mprj_bar\[18\]
*685 la_data_in_mprj_bar\[19\]
*686 la_data_in_mprj_bar\[1\]
*687 la_data_in_mprj_bar\[20\]
*688 la_data_in_mprj_bar\[21\]
*689 la_data_in_mprj_bar\[22\]
*690 la_data_in_mprj_bar\[23\]
*691 la_data_in_mprj_bar\[24\]
*692 la_data_in_mprj_bar\[25\]
*693 la_data_in_mprj_bar\[26\]
*694 la_data_in_mprj_bar\[27\]
*695 la_data_in_mprj_bar\[28\]
*696 la_data_in_mprj_bar\[29\]
*697 la_data_in_mprj_bar\[2\]
*698 la_data_in_mprj_bar\[30\]
*699 la_data_in_mprj_bar\[31\]
*700 la_data_in_mprj_bar\[32\]
*701 la_data_in_mprj_bar\[33\]
*702 la_data_in_mprj_bar\[34\]
*703 la_data_in_mprj_bar\[35\]
*704 la_data_in_mprj_bar\[36\]
*705 la_data_in_mprj_bar\[37\]
*706 la_data_in_mprj_bar\[38\]
*707 la_data_in_mprj_bar\[39\]
*708 la_data_in_mprj_bar\[3\]
*709 la_data_in_mprj_bar\[40\]
*710 la_data_in_mprj_bar\[41\]
*711 la_data_in_mprj_bar\[42\]
*712 la_data_in_mprj_bar\[43\]
*713 la_data_in_mprj_bar\[44\]
*714 la_data_in_mprj_bar\[45\]
*715 la_data_in_mprj_bar\[46\]
*716 la_data_in_mprj_bar\[47\]
*717 la_data_in_mprj_bar\[48\]
*718 la_data_in_mprj_bar\[49\]
*719 la_data_in_mprj_bar\[4\]
*720 la_data_in_mprj_bar\[50\]
*721 la_data_in_mprj_bar\[51\]
*722 la_data_in_mprj_bar\[52\]
*723 la_data_in_mprj_bar\[53\]
*724 la_data_in_mprj_bar\[54\]
*725 la_data_in_mprj_bar\[55\]
*726 la_data_in_mprj_bar\[56\]
*727 la_data_in_mprj_bar\[57\]
*728 la_data_in_mprj_bar\[58\]
*729 la_data_in_mprj_bar\[59\]
*730 la_data_in_mprj_bar\[5\]
*731 la_data_in_mprj_bar\[60\]
*732 la_data_in_mprj_bar\[61\]
*733 la_data_in_mprj_bar\[62\]
*734 la_data_in_mprj_bar\[63\]
*735 la_data_in_mprj_bar\[6\]
*736 la_data_in_mprj_bar\[7\]
*737 la_data_in_mprj_bar\[8\]
*738 la_data_in_mprj_bar\[9\]
*739 la_data_out_enable\[0\]
*740 la_data_out_enable\[10\]
*741 la_data_out_enable\[11\]
*742 la_data_out_enable\[12\]
*743 la_data_out_enable\[13\]
*744 la_data_out_enable\[14\]
*745 la_data_out_enable\[15\]
*746 la_data_out_enable\[16\]
*747 la_data_out_enable\[17\]
*748 la_data_out_enable\[18\]
*749 la_data_out_enable\[19\]
*750 la_data_out_enable\[1\]
*751 la_data_out_enable\[20\]
*752 la_data_out_enable\[21\]
*753 la_data_out_enable\[22\]
*754 la_data_out_enable\[23\]
*755 la_data_out_enable\[24\]
*756 la_data_out_enable\[25\]
*757 la_data_out_enable\[26\]
*758 la_data_out_enable\[27\]
*759 la_data_out_enable\[28\]
*760 la_data_out_enable\[29\]
*761 la_data_out_enable\[2\]
*762 la_data_out_enable\[30\]
*763 la_data_out_enable\[31\]
*764 la_data_out_enable\[32\]
*765 la_data_out_enable\[33\]
*766 la_data_out_enable\[34\]
*767 la_data_out_enable\[35\]
*768 la_data_out_enable\[36\]
*769 la_data_out_enable\[37\]
*770 la_data_out_enable\[38\]
*771 la_data_out_enable\[39\]
*772 la_data_out_enable\[3\]
*773 la_data_out_enable\[40\]
*774 la_data_out_enable\[41\]
*775 la_data_out_enable\[42\]
*776 la_data_out_enable\[43\]
*777 la_data_out_enable\[44\]
*778 la_data_out_enable\[45\]
*779 la_data_out_enable\[46\]
*780 la_data_out_enable\[47\]
*781 la_data_out_enable\[48\]
*782 la_data_out_enable\[49\]
*783 la_data_out_enable\[4\]
*784 la_data_out_enable\[50\]
*785 la_data_out_enable\[51\]
*786 la_data_out_enable\[52\]
*787 la_data_out_enable\[53\]
*788 la_data_out_enable\[54\]
*789 la_data_out_enable\[55\]
*790 la_data_out_enable\[56\]
*791 la_data_out_enable\[57\]
*792 la_data_out_enable\[58\]
*793 la_data_out_enable\[59\]
*794 la_data_out_enable\[5\]
*795 la_data_out_enable\[60\]
*796 la_data_out_enable\[61\]
*797 la_data_out_enable\[62\]
*798 la_data_out_enable\[63\]
*799 la_data_out_enable\[6\]
*800 la_data_out_enable\[7\]
*801 la_data_out_enable\[8\]
*802 la_data_out_enable\[9\]
*803 mprj_ack_i_core_bar
*804 mprj_dat_i_core_bar\[0\]
*805 mprj_dat_i_core_bar\[10\]
*806 mprj_dat_i_core_bar\[11\]
*807 mprj_dat_i_core_bar\[12\]
*808 mprj_dat_i_core_bar\[13\]
*809 mprj_dat_i_core_bar\[14\]
*810 mprj_dat_i_core_bar\[15\]
*811 mprj_dat_i_core_bar\[16\]
*812 mprj_dat_i_core_bar\[17\]
*813 mprj_dat_i_core_bar\[18\]
*814 mprj_dat_i_core_bar\[19\]
*815 mprj_dat_i_core_bar\[1\]
*816 mprj_dat_i_core_bar\[20\]
*817 mprj_dat_i_core_bar\[21\]
*818 mprj_dat_i_core_bar\[22\]
*819 mprj_dat_i_core_bar\[23\]
*820 mprj_dat_i_core_bar\[24\]
*821 mprj_dat_i_core_bar\[25\]
*822 mprj_dat_i_core_bar\[26\]
*823 mprj_dat_i_core_bar\[27\]
*824 mprj_dat_i_core_bar\[28\]
*825 mprj_dat_i_core_bar\[29\]
*826 mprj_dat_i_core_bar\[2\]
*827 mprj_dat_i_core_bar\[30\]
*828 mprj_dat_i_core_bar\[31\]
*829 mprj_dat_i_core_bar\[3\]
*830 mprj_dat_i_core_bar\[4\]
*831 mprj_dat_i_core_bar\[5\]
*832 mprj_dat_i_core_bar\[6\]
*833 mprj_dat_i_core_bar\[7\]
*834 mprj_dat_i_core_bar\[8\]
*835 mprj_dat_i_core_bar\[9\]
*836 user_irq_bar\[0\]
*837 user_irq_bar\[1\]
*838 user_irq_bar\[2\]
*839 ANTENNA__000__I
*840 ANTENNA__001__I
*841 ANTENNA__002__I
*842 ANTENNA__003__I
*843 ANTENNA__004__I
*844 ANTENNA__005__I
*845 ANTENNA__006__I
*846 ANTENNA__007__I
*847 ANTENNA__008__I
*848 ANTENNA__009__I
*849 ANTENNA__010__I
*850 ANTENNA__011__I
*851 ANTENNA__012__I
*852 ANTENNA__013__I
*853 ANTENNA__014__I
*854 ANTENNA__015__I
*855 ANTENNA__016__I
*856 ANTENNA__017__I
*857 ANTENNA__018__I
*858 ANTENNA__019__I
*859 ANTENNA__020__I
*860 ANTENNA__021__I
*861 ANTENNA__022__I
*862 ANTENNA__023__I
*863 ANTENNA__024__I
*864 ANTENNA__025__I
*865 ANTENNA__026__I
*866 ANTENNA__027__I
*867 ANTENNA__028__I
*868 ANTENNA__029__I
*869 ANTENNA__030__I
*870 ANTENNA__031__I
*871 ANTENNA__032__I
*872 ANTENNA__033__I
*873 ANTENNA__034__I
*874 ANTENNA__035__I
*875 ANTENNA__036__I
*876 ANTENNA__037__I
*877 ANTENNA__038__I
*878 ANTENNA__039__I
*879 ANTENNA__040__I
*880 ANTENNA__041__I
*881 ANTENNA__042__I
*882 ANTENNA__043__I
*883 ANTENNA__044__I
*884 ANTENNA__045__I
*885 ANTENNA__046__I
*886 ANTENNA__047__I
*887 ANTENNA__048__I
*888 ANTENNA__049__I
*889 ANTENNA__050__I
*890 ANTENNA__051__I
*891 ANTENNA__052__I
*892 ANTENNA__053__I
*893 ANTENNA__054__I
*894 ANTENNA__055__I
*895 ANTENNA__056__I
*896 ANTENNA__057__I
*897 ANTENNA__058__I
*898 ANTENNA__059__I
*899 ANTENNA__060__I
*900 ANTENNA__061__I
*901 ANTENNA__062__I
*902 ANTENNA__063__I
*903 ANTENNA__064__I
*904 ANTENNA__065__I
*905 ANTENNA__066__I
*906 ANTENNA__067__I
*907 ANTENNA__068__I
*908 ANTENNA__069__I
*909 ANTENNA__070__I
*910 ANTENNA__071__I
*911 ANTENNA__072__I
*912 ANTENNA__073__I
*913 ANTENNA__074__I
*914 ANTENNA__075__I
*915 ANTENNA__076__I
*916 ANTENNA__077__I
*917 ANTENNA__078__I
*918 ANTENNA__079__I
*919 ANTENNA__080__I
*920 ANTENNA__081__I
*921 ANTENNA__082__I
*922 ANTENNA__083__I
*923 ANTENNA__084__I
*924 ANTENNA__085__I
*925 ANTENNA__086__I
*926 ANTENNA__087__I
*927 ANTENNA__088__I
*928 ANTENNA__089__I
*929 ANTENNA__090__I
*930 ANTENNA__091__I
*931 ANTENNA__092__I
*932 ANTENNA__093__I
*933 ANTENNA__094__I
*934 ANTENNA__095__I
*935 ANTENNA__096__I
*936 ANTENNA__097__I
*937 ANTENNA__098__I
*938 ANTENNA__099__I
*939 ANTENNA__100__I
*940 ANTENNA__101__I
*941 ANTENNA__102__I
*942 ANTENNA__103__I
*943 ANTENNA__104__I
*944 ANTENNA__105__I
*945 ANTENNA__106__I
*946 ANTENNA__107__I
*947 ANTENNA__108__I
*948 ANTENNA__109__I
*949 ANTENNA__110__I
*950 ANTENNA__111__I
*951 ANTENNA__112__I
*952 ANTENNA__113__I
*953 ANTENNA__114__I
*954 ANTENNA__115__I
*955 ANTENNA__116__I
*956 ANTENNA__117__I
*957 ANTENNA__118__I
*958 ANTENNA__119__I
*959 ANTENNA__120__I
*960 ANTENNA__121__I
*961 ANTENNA__122__I
*962 ANTENNA__123__I
*963 ANTENNA__124__I
*964 ANTENNA__125__I
*965 ANTENNA__126__I
*966 ANTENNA__127__I
*967 ANTENNA__128__I
*968 ANTENNA__129__I
*969 ANTENNA__130__I
*970 ANTENNA__131__I
*971 ANTENNA__132__I
*972 ANTENNA__133__I
*973 ANTENNA__134__I
*974 ANTENNA__135__I
*975 ANTENNA__136__I
*976 ANTENNA__137__I
*977 ANTENNA__138__I
*978 ANTENNA__139__I
*979 ANTENNA__140__I
*980 ANTENNA__141__I
*981 ANTENNA__142__I
*982 ANTENNA__143__I
*983 ANTENNA__144__I
*984 ANTENNA__145__I
*985 ANTENNA__146__I
*986 ANTENNA__147__I
*987 ANTENNA__148__I
*988 ANTENNA__149__I
*989 ANTENNA__150__I
*990 ANTENNA__151__I
*991 ANTENNA__152__I
*992 ANTENNA__153__I
*993 ANTENNA__154__I
*994 ANTENNA__155__I
*995 ANTENNA__156__I
*996 ANTENNA__157__I
*997 ANTENNA__158__I
*998 ANTENNA__159__I
*999 ANTENNA__160__I
*1000 ANTENNA__161__I
*1001 ANTENNA__162__I
*1002 ANTENNA__163__I
*1003 ANTENNA__164__I
*1004 ANTENNA__165__I
*1005 ANTENNA__166__I
*1006 ANTENNA__167__I
*1007 ANTENNA__168__I
*1008 ANTENNA__169__I
*1009 ANTENNA__170__I
*1010 ANTENNA__171__I
*1011 ANTENNA__172__I
*1012 ANTENNA__173__I
*1013 ANTENNA__174__I
*1014 ANTENNA__175__I
*1015 ANTENNA__176__I
*1016 ANTENNA__177__I
*1017 ANTENNA__178__I
*1018 ANTENNA__179__I
*1019 ANTENNA__180__I
*1020 ANTENNA__181__I
*1021 ANTENNA__182__I
*1022 ANTENNA__183__I
*1023 ANTENNA__184__I
*1024 ANTENNA__185__I
*1025 ANTENNA__186__I
*1026 ANTENNA__187__I
*1027 ANTENNA__188__I
*1028 ANTENNA__189__I
*1029 ANTENNA__190__I
*1030 ANTENNA__191__I
*1031 ANTENNA__192__I
*1032 ANTENNA__193__I
*1033 ANTENNA__194__I
*1034 ANTENNA__195__I
*1035 ANTENNA__196__I
*1036 ANTENNA__197__I
*1037 ANTENNA__198__I
*1038 ANTENNA__199__I
*1039 ANTENNA__200__I
*1040 ANTENNA__201__I
*1041 ANTENNA_la_buf\[0\]_EN
*1042 ANTENNA_la_buf\[0\]_I
*1043 ANTENNA_la_buf\[10\]_EN
*1044 ANTENNA_la_buf\[10\]_I
*1045 ANTENNA_la_buf\[11\]_EN
*1046 ANTENNA_la_buf\[11\]_I
*1047 ANTENNA_la_buf\[12\]_EN
*1048 ANTENNA_la_buf\[12\]_I
*1049 ANTENNA_la_buf\[13\]_EN
*1050 ANTENNA_la_buf\[13\]_I
*1051 ANTENNA_la_buf\[14\]_I
*1052 ANTENNA_la_buf\[15\]_I
*1053 ANTENNA_la_buf\[16\]_I
*1054 ANTENNA_la_buf\[17\]_I
*1055 ANTENNA_la_buf\[18\]_I
*1056 ANTENNA_la_buf\[19\]_I
*1057 ANTENNA_la_buf\[1\]_EN
*1058 ANTENNA_la_buf\[1\]_I
*1059 ANTENNA_la_buf\[20\]_I
*1060 ANTENNA_la_buf\[21\]_I
*1061 ANTENNA_la_buf\[22\]_EN
*1062 ANTENNA_la_buf\[22\]_I
*1063 ANTENNA_la_buf\[23\]_EN
*1064 ANTENNA_la_buf\[23\]_I
*1065 ANTENNA_la_buf\[24\]_EN
*1066 ANTENNA_la_buf\[24\]_I
*1067 ANTENNA_la_buf\[25\]_EN
*1068 ANTENNA_la_buf\[25\]_I
*1069 ANTENNA_la_buf\[26\]_EN
*1070 ANTENNA_la_buf\[26\]_I
*1071 ANTENNA_la_buf\[27\]_EN
*1072 ANTENNA_la_buf\[27\]_I
*1073 ANTENNA_la_buf\[28\]_I
*1074 ANTENNA_la_buf\[29\]_EN
*1075 ANTENNA_la_buf\[29\]_I
*1076 ANTENNA_la_buf\[2\]_EN
*1077 ANTENNA_la_buf\[2\]_I
*1078 ANTENNA_la_buf\[30\]_EN
*1079 ANTENNA_la_buf\[30\]_I
*1080 ANTENNA_la_buf\[31\]_I
*1081 ANTENNA_la_buf\[32\]_I
*1082 ANTENNA_la_buf\[33\]_I
*1083 ANTENNA_la_buf\[34\]_I
*1084 ANTENNA_la_buf\[35\]_I
*1085 ANTENNA_la_buf\[36\]_I
*1086 ANTENNA_la_buf\[37\]_I
*1087 ANTENNA_la_buf\[38\]_I
*1088 ANTENNA_la_buf\[39\]_I
*1089 ANTENNA_la_buf\[3\]_EN
*1090 ANTENNA_la_buf\[3\]_I
*1091 ANTENNA_la_buf\[40\]_I
*1092 ANTENNA_la_buf\[41\]_I
*1093 ANTENNA_la_buf\[42\]_I
*1094 ANTENNA_la_buf\[43\]_I
*1095 ANTENNA_la_buf\[44\]_I
*1096 ANTENNA_la_buf\[45\]_I
*1097 ANTENNA_la_buf\[46\]_I
*1098 ANTENNA_la_buf\[47\]_I
*1099 ANTENNA_la_buf\[48\]_I
*1100 ANTENNA_la_buf\[49\]_I
*1101 ANTENNA_la_buf\[4\]_EN
*1102 ANTENNA_la_buf\[4\]_I
*1103 ANTENNA_la_buf\[50\]_I
*1104 ANTENNA_la_buf\[51\]_I
*1105 ANTENNA_la_buf\[52\]_I
*1106 ANTENNA_la_buf\[53\]_I
*1107 ANTENNA_la_buf\[54\]_I
*1108 ANTENNA_la_buf\[55\]_I
*1109 ANTENNA_la_buf\[56\]_I
*1110 ANTENNA_la_buf\[57\]_I
*1111 ANTENNA_la_buf\[58\]_I
*1112 ANTENNA_la_buf\[59\]_I
*1113 ANTENNA_la_buf\[5\]_EN
*1114 ANTENNA_la_buf\[5\]_I
*1115 ANTENNA_la_buf\[60\]_I
*1116 ANTENNA_la_buf\[61\]_I
*1117 ANTENNA_la_buf\[62\]_I
*1118 ANTENNA_la_buf\[63\]_I
*1119 ANTENNA_la_buf\[6\]_EN
*1120 ANTENNA_la_buf\[6\]_I
*1121 ANTENNA_la_buf\[7\]_EN
*1122 ANTENNA_la_buf\[7\]_I
*1123 ANTENNA_la_buf\[8\]_EN
*1124 ANTENNA_la_buf\[8\]_I
*1125 ANTENNA_la_buf\[9\]_EN
*1126 ANTENNA_la_buf\[9\]_I
*1127 ANTENNA_user_irq_gates\[0\]_A1
*1128 ANTENNA_user_irq_gates\[0\]_A2
*1129 ANTENNA_user_irq_gates\[1\]_A1
*1130 ANTENNA_user_irq_gates\[1\]_A2
*1131 ANTENNA_user_irq_gates\[2\]_A1
*1132 ANTENNA_user_irq_gates\[2\]_A2
*1133 ANTENNA_user_to_mprj_in_buffers\[0\]_I
*1134 ANTENNA_user_to_mprj_in_buffers\[10\]_I
*1135 ANTENNA_user_to_mprj_in_buffers\[11\]_I
*1136 ANTENNA_user_to_mprj_in_buffers\[12\]_I
*1137 ANTENNA_user_to_mprj_in_buffers\[13\]_I
*1138 ANTENNA_user_to_mprj_in_buffers\[14\]_I
*1139 ANTENNA_user_to_mprj_in_buffers\[15\]_I
*1140 ANTENNA_user_to_mprj_in_buffers\[16\]_I
*1141 ANTENNA_user_to_mprj_in_buffers\[17\]_I
*1142 ANTENNA_user_to_mprj_in_buffers\[18\]_I
*1143 ANTENNA_user_to_mprj_in_buffers\[19\]_I
*1144 ANTENNA_user_to_mprj_in_buffers\[1\]_I
*1145 ANTENNA_user_to_mprj_in_buffers\[20\]_I
*1146 ANTENNA_user_to_mprj_in_buffers\[21\]_I
*1147 ANTENNA_user_to_mprj_in_buffers\[22\]_I
*1148 ANTENNA_user_to_mprj_in_buffers\[23\]_I
*1149 ANTENNA_user_to_mprj_in_buffers\[24\]_I
*1150 ANTENNA_user_to_mprj_in_buffers\[25\]_I
*1151 ANTENNA_user_to_mprj_in_buffers\[26\]_I
*1152 ANTENNA_user_to_mprj_in_buffers\[27\]_I
*1153 ANTENNA_user_to_mprj_in_buffers\[28\]_I
*1154 ANTENNA_user_to_mprj_in_buffers\[29\]_I
*1155 ANTENNA_user_to_mprj_in_buffers\[2\]_I
*1156 ANTENNA_user_to_mprj_in_buffers\[30\]_I
*1157 ANTENNA_user_to_mprj_in_buffers\[31\]_I
*1158 ANTENNA_user_to_mprj_in_buffers\[32\]_I
*1159 ANTENNA_user_to_mprj_in_buffers\[33\]_I
*1160 ANTENNA_user_to_mprj_in_buffers\[34\]_I
*1161 ANTENNA_user_to_mprj_in_buffers\[35\]_I
*1162 ANTENNA_user_to_mprj_in_buffers\[36\]_I
*1163 ANTENNA_user_to_mprj_in_buffers\[37\]_I
*1164 ANTENNA_user_to_mprj_in_buffers\[38\]_I
*1165 ANTENNA_user_to_mprj_in_buffers\[39\]_I
*1166 ANTENNA_user_to_mprj_in_buffers\[3\]_I
*1167 ANTENNA_user_to_mprj_in_buffers\[40\]_I
*1168 ANTENNA_user_to_mprj_in_buffers\[41\]_I
*1169 ANTENNA_user_to_mprj_in_buffers\[42\]_I
*1170 ANTENNA_user_to_mprj_in_buffers\[43\]_I