*SPEF "ieee 1481-1999"
*DESIGN "spare_logic_block"
*DATE "11:11:11 Fri 11 11, 1111"
*VENDOR "OpenRCX"
*PROGRAM "Parallel Extraction"
*VERSION "1.0"
*DESIGN_FLOW "NAME_SCOPE LOCAL" "PIN_CAP NONE"
*DIVIDER /
*DELIMITER :
*BUS_DELIMITER []
*T_UNIT 1 NS
*C_UNIT 1 PF
*R_UNIT 1 OHM
*L_UNIT 1 HENRY

*NAME_MAP
*3 spare_xfq[0]
*4 spare_xfq[1]
*5 spare_xi[0]
*6 spare_xi[1]
*7 spare_xi[2]
*8 spare_xi[3]
*9 spare_xib
*10 spare_xmx[0]
*11 spare_xmx[1]
*12 spare_xna[0]
*13 spare_xna[1]
*14 spare_xno[0]
*15 spare_xno[1]
*16 spare_xz[0]
*17 spare_xz[10]
*18 spare_xz[11]
*19 spare_xz[12]
*20 spare_xz[13]
*21 spare_xz[14]
*22 spare_xz[15]
*23 spare_xz[16]
*24 spare_xz[17]
*25 spare_xz[18]
*26 spare_xz[19]
*27 spare_xz[1]
*28 spare_xz[20]
*29 spare_xz[21]
*30 spare_xz[22]
*31 spare_xz[23]
*32 spare_xz[24]
*33 spare_xz[25]
*34 spare_xz[26]
*35 spare_xz[27]
*36 spare_xz[28]
*37 spare_xz[29]
*38 spare_xz[2]
*39 spare_xz[30]
*40 spare_xz[3]
*41 spare_xz[4]
*42 spare_xz[5]
*43 spare_xz[6]
*44 spare_xz[7]
*45 spare_xz[8]
*46 spare_xz[9]
*47 FILLER_0_10
*48 FILLER_0_100
*49 FILLER_0_104
*50 FILLER_0_107
*51 FILLER_0_16
*52 FILLER_0_2
*53 FILLER_0_28
*54 FILLER_0_32
*55 FILLER_0_34
*56 FILLER_0_41
*57 FILLER_0_47
*58 FILLER_0_55
*59 FILLER_0_63
*60 FILLER_0_67
*61 FILLER_0_69
*62 FILLER_0_76
*63 FILLER_0_92
*64 FILLER_10_101
*65 FILLER_10_105
*66 FILLER_10_108
*67 FILLER_10_110
*68 FILLER_10_12
*69 FILLER_10_2
*70 FILLER_10_28
*71 FILLER_10_32
*72 FILLER_10_34
*73 FILLER_10_37
*74 FILLER_10_53
*75 FILLER_10_57
*76 FILLER_10_6
*77 FILLER_10_63
*78 FILLER_10_95
*79 FILLER_11_109
*80 FILLER_11_14
*81 FILLER_11_2
*82 FILLER_11_20
*83 FILLER_11_4
*84 FILLER_11_58
*85 FILLER_11_66
*86 FILLER_11_70
*87 FILLER_11_73
*88 FILLER_11_81
*89 FILLER_11_85
*90 FILLER_11_87
*91 FILLER_11_92
*92 FILLER_12_102
*93 FILLER_12_104
*94 FILLER_12_107
*95 FILLER_12_2
*96 FILLER_12_34
*97 FILLER_12_37
*98 FILLER_12_53
*99 FILLER_12_57
*100 FILLER_12_63
*101 FILLER_12_67
*102 FILLER_12_69
*103 FILLER_12_72
*104 FILLER_12_88
*105 FILLER_12_96
*106 FILLER_1_107
*107 FILLER_1_2
*108 FILLER_1_4
*109 FILLER_1_46
*110 FILLER_1_50
*111 FILLER_1_55
*112 FILLER_1_66
*113 FILLER_1_70
*114 FILLER_1_77
*115 FILLER_1_83
*116 FILLER_1_99
*117 FILLER_2_100
*118 FILLER_2_104
*119 FILLER_2_108
*120 FILLER_2_110
*121 FILLER_2_19
*122 FILLER_2_2
*123 FILLER_2_37
*124 FILLER_2_41
*125 FILLER_2_46
*126 FILLER_2_50
*127 FILLER_2_52
*128 FILLER_2_57
*129 FILLER_2_6
*130 FILLER_2_8
*131 FILLER_3_105
*132 FILLER_3_109
*133 FILLER_3_12
*134 FILLER_3_2
*135 FILLER_3_44
*136 FILLER_3_6
*137 FILLER_3_60
*138 FILLER_3_68
*139 FILLER_3_70
*140 FILLER_3_73
*141 FILLER_3_81
*142 FILLER_3_87
*143 FILLER_3_95
*144 FILLER_3_99
*145 FILLER_4_10
*146 FILLER_4_101
*147 FILLER_4_105
*148 FILLER_4_108
*149 FILLER_4_110
*150 FILLER_4_14
*151 FILLER_4_16
*152 FILLER_4_2
*153 FILLER_4_21
*154 FILLER_4_29
*155 FILLER_4_33
*156 FILLER_4_37
*157 FILLER_5_105
*158 FILLER_5_109
*159 FILLER_5_2
*160 FILLER_5_34
*161 FILLER_5_56
*162 FILLER_5_64
*163 FILLER_5_68
*164 FILLER_5_70
*165 FILLER_5_73
*166 FILLER_6_104
*167 FILLER_6_108
*168 FILLER_6_110
*169 FILLER_6_2
*170 FILLER_6_34
*171 FILLER_6_37
*172 FILLER_6_45
*173 FILLER_6_72
*174 FILLER_7_106
*175 FILLER_7_110
*176 FILLER_7_2
*177 FILLER_7_34
*178 FILLER_7_38
*179 FILLER_7_44
*180 FILLER_7_50
*181 FILLER_7_54
*182 FILLER_7_56
*183 FILLER_7_61
*184 FILLER_7_69
*185 FILLER_7_73
*186 FILLER_7_78
*187 FILLER_7_90
*188 FILLER_8_101
*189 FILLER_8_105
*190 FILLER_8_108
*191 FILLER_8_110
*192 FILLER_8_2
*193 FILLER_8_34
*194 FILLER_8_37
*195 FILLER_8_45
*196 FILLER_8_49
*197 FILLER_8_65
*198 FILLER_8_71
*199 FILLER_8_87
*200 FILLER_8_93
*201 FILLER_9_105
*202 FILLER_9_109
*203 FILLER_9_12
*204 FILLER_9_18
*205 FILLER_9_2
*206 FILLER_9_50
*207 FILLER_9_55
*208 FILLER_9_6
*209 FILLER_9_73
*210 PHY_0
*211 PHY_1
*212 PHY_10
*213 PHY_11
*214 PHY_12
*215 PHY_13
*216 PHY_14
*217 PHY_15
*218 PHY_16
*219 PHY_17
*220 PHY_18
*221 PHY_19
*222 PHY_2
*223 PHY_20
*224 PHY_21
*225 PHY_22
*226 PHY_23
*227 PHY_24
*228 PHY_25
*229 PHY_3
*230 PHY_4
*231 PHY_5
*232 PHY_6
*233 PHY_7
*234 PHY_8
*235 PHY_9
*236 TAP_26
*237 TAP_27
*238 TAP_28
*239 TAP_29
*240 TAP_30
*241 TAP_31
*242 TAP_32
*243 TAP_33
*244 TAP_34
*245 TAP_35
*246 TAP_36
*247 TAP_37
*248 TAP_38
*249 TAP_39
*250 TAP_40
*251 TAP_41
*252 TAP_42
*253 TAP_43
*254 TAP_44
*255 TAP_45
*256 TAP_46
*257 TAP_47
*258 spare_logic_biginv
*259 spare_logic_const_one\[0\]
*260 spare_logic_const_one\[1\]
*261 spare_logic_const_one\[2\]
*262 spare_logic_const_one\[3\]
*263 spare_logic_const_zero\[0\]
*264 spare_logic_const_zero\[10\]
*265 spare_logic_const_zero\[11\]
*266 spare_logic_const_zero\[12\]
*267 spare_logic_const_zero\[13\]
*268 spare_logic_const_zero\[14\]
*269 spare_logic_const_zero\[15\]
*270 spare_logic_const_zero\[16\]
*271 spare_logic_const_zero\[17\]
*272 spare_logic_const_zero\[18\]
*273 spare_logic_const_zero\[19\]
*274 spare_logic_const_zero\[1\]
*275 spare_logic_const_zero\[20\]
*276 spare_logic_const_zero\[21\]
*277 spare_logic_const_zero\[22\]
*278 spare_logic_const_zero\[23\]
*279 spare_logic_const_zero\[24\]
*280 spare_logic_const_zero\[25\]
*281 spare_logic_const_zero\[26\]
*282 spare_logic_const_zero\[2\]
*283 spare_logic_const_zero\[3\]
*284 spare_logic_const_zero\[4\]
*285 spare_logic_const_zero\[5\]
*286 spare_logic_const_zero\[6\]
*287 spare_logic_const_zero\[7\]
*288 spare_logic_const_zero\[8\]
*289 spare_logic_const_zero\[9\]
*290 spare_logic_flop\[0\]
*291 spare_logic_flop\[1\]
*292 spare_logic_inv\[0\]
*293 spare_logic_inv\[1\]
*294 spare_logic_inv\[2\]
*295 spare_logic_inv\[3\]
*296 spare_logic_mux\[0\]
*297 spare_logic_mux\[1\]
*298 spare_logic_nand\[0\]
*299 spare_logic_nand\[1\]
*300 spare_logic_nor\[0\]
*301 spare_logic_nor\[1\]

*PORTS
spare_xfq[0] O
spare_xfq[1] O
spare_xi[0] O
spare_xi[1] O
spare_xi[2] O
spare_xi[3] O
spare_xib O
spare_xmx[0] O
spare_xmx[1] O
spare_xna[0] O
spare_xna[1] O
spare_xno[0] O
spare_xno[1] O
spare_xz[0] O
spare_xz[10] O
spare_xz[11] O
spare_xz[12] O
spare_xz[13] O
spare_xz[14] O
spare_xz[15] O
spare_xz[16] O
spare_xz[17] O
spare_xz[18] O
spare_xz[19] O
spare_xz[1] O
spare_xz[20] O
spare_xz[21] O
spare_xz[22] O
spare_xz[23] O
spare_xz[24] O
spare_xz[25] O
spare_xz[26] O
spare_xz[27] O
spare_xz[28] O
spare_xz[29] O
spare_xz[2] O
spare_xz[30] O
spare_xz[3] O
spare_xz[4] O
spare_xz[5] O
spare_xz[6] O
spare_xz[7] O
spare_xz[8] O
spare_xz[9] O

*D_NET *3 0.00370671
*CONN
*P spare_xfq[0] O
*I *290:Q O *D gf180mcu_fd_sc_mcu7t5v0__dffrsnq_2
*CAP
1 spare_xfq[0] 0.0012188
2 *290:Q 0.0012188
3 spare_xfq[0] spare_xi[1] 0
4 spare_xfq[0] spare_xz[16] 0.000201299
5 spare_xfq[0] spare_xz[9] 0.000870375
6 spare_xfq[0] *290:RN 0.000145285
7 spare_xfq[0] *291:CLK 5.21584e-05
*RES
1 *290:Q spare_xfq[0] 21.285 
*END

*D_NET *4 0.00210597
*CONN
*P spare_xfq[1] O
*I *291:Q O *D gf180mcu_fd_sc_mcu7t5v0__dffrsnq_2
*CAP
1 spare_xfq[1] 0.000773222
2 *291:Q 0.000773222
3 spare_xfq[1] spare_xz[25] 0.000559527
4 spare_xfq[1] spare_xz[29] 0
*RES
1 *291:Q spare_xfq[1] 20.835 
*END

*D_NET *5 0.00184279
*CONN
*P spare_xi[0] O
*I *292:ZN O *D gf180mcu_fd_sc_mcu7t5v0__inv_2
*CAP
1 spare_xi[0] 0.000700009
2 *292:ZN 0.000700009
3 spare_xi[0] spare_xi[3] 0.000111905
4 spare_xi[0] spare_xz[1] 4.09172e-05
5 spare_xi[0] spare_xz[8] 0.000283046
6 spare_xi[0] *16:7 6.90477e-06
*RES
1 *292:ZN spare_xi[0] 20.115 
*END

*D_NET *6 0.00403329
*CONN
*P spare_xi[1] O
*I *293:ZN O *D gf180mcu_fd_sc_mcu7t5v0__inv_2
*CAP
1 spare_xi[1] 0.00100698
2 *293:ZN 0.00100698
3 spare_xi[1] spare_xz[22] 0.00025471
4 spare_xi[1] spare_xz[2] 0.000329511
5 spare_xi[1] *291:CLK 0.000410419
6 spare_xi[1] *38:9 0.00094493
7 spare_xi[1] *45:7 7.97665e-05
8 spare_xfq[0] spare_xi[1] 0
*RES
1 *293:ZN spare_xi[1] 16.785 
*END

*D_NET *7 0.0032323
*CONN
*P spare_xi[2] O
*I *294:ZN O *D gf180mcu_fd_sc_mcu7t5v0__inv_2
*CAP
1 spare_xi[2] 0.000904648
2 *294:ZN 0.000904648
3 spare_xi[2] spare_xib 0
4 spare_xi[2] spare_xna[1] 0.000233228
5 spare_xi[2] spare_xz[23] 0.000679981
6 spare_xi[2] spare_xz[26] 0.000509791
*RES
1 *294:ZN spare_xi[2] 20.5473 
*END

*D_NET *8 0.00302677
*CONN
*P spare_xi[3] O
*I *295:ZN O *D gf180mcu_fd_sc_mcu7t5v0__inv_2
*CAP
1 spare_xi[3] 0.00112087
2 *295:ZN 0.00112087
3 spare_xi[3] spare_xna[0] 6.3724e-05
4 spare_xi[3] spare_xz[18] 0
5 spare_xi[3] spare_xz[5] 0.00027277
6 spare_xi[3] spare_xz[8] 0.000238708
7 spare_xi[3] *298:A1 9.79173e-05
8 spare_xi[0] spare_xi[3] 0.000111905
*RES
1 *295:ZN spare_xi[3] 20.1954 
*END

*D_NET *9 0.00551439
*CONN
*P spare_xib O
*I *258:ZN O *D gf180mcu_fd_sc_mcu7t5v0__inv_12
*CAP
1 spare_xib 0.00157746
2 *258:ZN 0.00157746
3 spare_xib spare_xno[1] 0
4 spare_xib spare_xz[10] 0
5 spare_xib spare_xz[20] 0.0010637
6 spare_xib spare_xz[24] 0
7 spare_xib spare_xz[26] 0.000270244
8 spare_xib spare_xz[6] 0.000383544
9 spare_xib spare_xz[9] 0.000187931
10 spare_xib *291:RN 5.52162e-05
11 spare_xib *291:SETN 0
12 spare_xib *299:A1 3.06879e-05
13 spare_xib *28:7 0.000368146
14 spare_xi[2] spare_xib 0
*RES
1 *258:ZN spare_xib 36.225 
*END

*D_NET *10 0.0038074
*CONN
*P spare_xmx[0] O
*I *296:Z O *D gf180mcu_fd_sc_mcu7t5v0__mux2_2
*CAP
1 spare_xmx[0] 0.0019037
2 *296:Z 0.0019037
*RES
1 *296:Z spare_xmx[0] 32.488 
*END

*D_NET *11 0.00479239
*CONN
*P spare_xmx[1] O
*I *297:Z O *D gf180mcu_fd_sc_mcu7t5v0__mux2_2
*CAP
1 spare_xmx[1] 0.00127118
2 *297:Z 0.00127118
3 spare_xmx[1] spare_xz[0] 0.00051808
4 spare_xmx[1] spare_xz[12] 7.77122e-05
5 spare_xmx[1] spare_xz[13] 0.000715905
6 spare_xmx[1] spare_xz[1] 1.79013e-05
7 spare_xmx[1] spare_xz[8] 0.00025769
8 spare_xmx[1] *292:I 0.000306659
9 spare_xmx[1] *16:7 0.000107408
10 spare_xmx[1] *24:10 0.000248679
*RES
1 *297:Z spare_xmx[1] 22.725 
*END

*D_NET *12 0.00166017
*CONN
*P spare_xna[0] O
*I *298:ZN O *D gf180mcu_fd_sc_mcu7t5v0__nand2_2
*CAP
1 spare_xna[0] 0.00071335
2 *298:ZN 0.00071335
3 spare_xna[0] spare_xz[21] 4.47212e-05
4 spare_xna[0] spare_xz[28] 0.000125023
5 spare_xi[3] spare_xna[0] 6.3724e-05
*RES
1 *298:ZN spare_xna[0] 21.105 
*END

*D_NET *13 0.0010927
*CONN
*P spare_xna[1] O
*I *299:ZN O *D gf180mcu_fd_sc_mcu7t5v0__nand2_2
*CAP
1 spare_xna[1] 0.000420199
2 *299:ZN 0.000420199
3 spare_xna[1] *294:I 1.90703e-05
4 spare_xna[1] *299:A1 0
5 spare_xi[2] spare_xna[1] 0.000233228
*RES
1 *299:ZN spare_xna[1] 8.055 
*END

*D_NET *14 0.000636525
*CONN
*P spare_xno[0] O
*I *300:ZN O *D gf180mcu_fd_sc_mcu7t5v0__nor2_2
*CAP
1 spare_xno[0] 0.000318263
2 *300:ZN 0.000318263
*RES
1 *300:ZN spare_xno[0] 12.195 
*END

*D_NET *15 0.0031499
*CONN
*P spare_xno[1] O
*I *301:ZN O *D gf180mcu_fd_sc_mcu7t5v0__nor2_2
*CAP
1 spare_xno[1] 0.00116245
2 *301:ZN 0.00116245
3 spare_xno[1] spare_xz[23] 0
4 spare_xno[1] spare_xz[24] 0.000375813
5 spare_xno[1] spare_xz[26] 6.90477e-06
6 spare_xno[1] *291:RN 7.85464e-05
7 spare_xno[1] *291:SETN 0.000363725
8 spare_xib spare_xno[1] 0
*RES
1 *301:ZN spare_xno[1] 15.705 
*END

*D_NET *16 0.00849851
*CONN
*P spare_xz[0] O
*I *292:I I *D gf180mcu_fd_sc_mcu7t5v0__inv_2
*I *263:ZN O *D gf180mcu_fd_sc_mcu7t5v0__tiel
*CAP
1 spare_xz[0] 0.00102637
2 *292:I 3.31063e-05
3 *263:ZN 4.81662e-05
4 *16:7 0.00110765
5 spare_xz[0] spare_xz[12] 0.000202754
6 spare_xz[0] spare_xz[24] 6.44007e-05
7 spare_xz[0] spare_xz[3] 0.00466229
8 spare_xz[0] *24:10 0
9 *292:I spare_xz[13] 6.00605e-05
10 *292:I spare_xz[1] 0.000109161
11 *16:7 spare_xz[1] 0.000245504
12 spare_xi[0] *16:7 6.90477e-06
13 spare_xmx[1] spare_xz[0] 0.00051808
14 spare_xmx[1] *292:I 0.000306659
15 spare_xmx[1] *16:7 0.000107408
*RES
1 *263:ZN *16:7 5.58 
2 *16:7 spare_xz[0] 26.145 
3 *16:7 *292:I 5.39036 
*END

*D_NET *17 0.00529325
*CONN
*P spare_xz[10] O
*I *301:A1 I *D gf180mcu_fd_sc_mcu7t5v0__nor2_2
*I *264:ZN O *D gf180mcu_fd_sc_mcu7t5v0__tiel
*CAP
1 spare_xz[10] 0.00132453
2 *301:A1 0.000113348
3 *264:ZN 1.30113e-05
4 *17:7 0.00145089
5 spare_xz[10] spare_xz[14] 8.39291e-05
6 spare_xz[10] spare_xz[16] 0.00174031
7 spare_xz[10] spare_xz[4] 0
8 spare_xz[10] *297:I0 0.000223811
9 spare_xz[10] *297:I1 0
10 *301:A1 spare_xz[14] 9.79173e-05
11 *301:A1 spare_xz[24] 0.000184127
12 *17:7 spare_xz[20] 6.1376e-05
13 spare_xib spare_xz[10] 0
*RES
1 *264:ZN *17:7 9.18 
2 *17:7 spare_xz[10] 14.355 
3 *17:7 *301:A1 10.71 
*END

*D_NET *18 0.00153014
*CONN
*P spare_xz[11] O
*I *300:A2 I *D gf180mcu_fd_sc_mcu7t5v0__nor2_2
*I *265:ZN O *D gf180mcu_fd_sc_mcu7t5v0__tiel
*CAP
1 spare_xz[11] 0.00023134
2 *300:A2 0.000306105
3 *265:ZN 3.0087e-05
4 *18:7 0.000567532
5 spare_xz[11] spare_xz[19] 1.22751e-05
6 spare_xz[11] *290:D 1.84127e-05
7 *300:A2 *290:D 0.00022709
8 *300:A2 *290:CLK 0.000110452
9 *300:A2 *300:A1 2.68519e-05
*RES
1 *265:ZN *18:7 4.86 
2 *18:7 *300:A2 8.19 
3 *18:7 spare_xz[11] 2.025 
*END

*D_NET *19 0.00642313
*CONN
*P spare_xz[12] O
*I *301:A2 I *D gf180mcu_fd_sc_mcu7t5v0__nor2_2
*I *266:ZN O *D gf180mcu_fd_sc_mcu7t5v0__tiel
*CAP
1 spare_xz[12] 0.0012393
2 *301:A2 0.000194571
3 *266:ZN 9.03006e-06
4 *19:5 0.0014429
5 spare_xz[12] spare_xz[13] 0.00281188
6 spare_xz[12] spare_xz[15] 0
7 spare_xz[12] spare_xz[3] 2.68519e-05
8 spare_xz[12] *20:9 0.000194868
9 spare_xz[12] *24:10 0.00019871
10 *301:A2 spare_xz[24] 2.45503e-05
11 spare_xmx[1] spare_xz[12] 7.77122e-05
12 spare_xz[0] spare_xz[12] 0.000202754
*RES
1 *266:ZN *19:5 4.68 
2 *19:5 *301:A2 6.39 
3 *19:5 spare_xz[12] 21.285 
*END

*D_NET *20 0.0126529
*CONN
*P spare_xz[13] O
*I *296:I0 I *D gf180mcu_fd_sc_mcu7t5v0__mux2_2
*I *267:ZN O *D gf180mcu_fd_sc_mcu7t5v0__tiel
*CAP
1 spare_xz[13] 0.00136632
2 *296:I0 0
3 *267:ZN 0.000142089
4 *20:9 0.00150841
5 spare_xz[13] spare_xz[14] 0.00348151
6 spare_xz[13] spare_xz[17] 2.23583e-05
7 spare_xz[13] spare_xz[1] 0.000467336
8 spare_xz[13] spare_xz[20] 0.000832763
9 spare_xz[13] spare_xz[8] 2.76191e-05
10 spare_xz[13] *297:I0 0.000497358
11 spare_xz[13] *22:9 0.000184128
12 *20:9 spare_xz[17] 0.000340307
13 spare_xmx[1] spare_xz[13] 0.000715905
14 spare_xz[12] spare_xz[13] 0.00281188
15 spare_xz[12] *20:9 0.000194868
16 *292:I spare_xz[13] 6.00605e-05
*RES
1 *267:ZN *20:9 6.13607 
2 *20:9 spare_xz[13] 29.6389 
3 *20:9 *296:I0 4.5 
*END

*D_NET *21 0.00708225
*CONN
*P spare_xz[14] O
*I *297:I0 I *D gf180mcu_fd_sc_mcu7t5v0__mux2_2
*I *268:ZN O *D gf180mcu_fd_sc_mcu7t5v0__tiel
*CAP
1 spare_xz[14] 0.000588804
2 *297:I0 0.000195639
3 *268:ZN 0
4 *21:5 0.000784444
5 spare_xz[14] spare_xz[20] 0.000870375
6 *297:I0 spare_xz[1] 1.72619e-05
7 *297:I0 *297:I1 0.000241198
8 spare_xz[10] spare_xz[14] 8.39291e-05
9 spare_xz[10] *297:I0 0.000223811
10 spare_xz[13] spare_xz[14] 0.00348151
11 spare_xz[13] *297:I0 0.000497358
12 *301:A1 spare_xz[14] 9.79173e-05
*RES
1 *268:ZN *21:5 9 
2 *21:5 *297:I0 12.0536 
3 *21:5 spare_xz[14] 10.755 
*END

*D_NET *22 0.0039434
*CONN
*P spare_xz[15] O
*I *296:I1 I *D gf180mcu_fd_sc_mcu7t5v0__mux2_2
*I *269:ZN O *D gf180mcu_fd_sc_mcu7t5v0__tiel
*CAP
1 spare_xz[15] 0.000482871
2 *296:I1 0
3 *269:ZN 0.000281938
4 *22:9 0.000764808
5 spare_xz[15] spare_xz[17] 0.00222966
6 *22:9 spare_xz[17] 0
7 spare_xz[12] spare_xz[15] 0
8 spare_xz[13] *22:9 0.000184128
*RES
1 *269:ZN *22:9 7.11 
2 *22:9 *296:I1 4.5 
3 *22:9 spare_xz[15] 6.345 
*END

*D_NET *23 0.0076617
*CONN
*P spare_xz[16] O
*I *297:I1 I *D gf180mcu_fd_sc_mcu7t5v0__mux2_2
*I *270:ZN O *D gf180mcu_fd_sc_mcu7t5v0__tiel
*CAP
1 spare_xz[16] 0.00183966
2 *297:I1 0.000397624
3 *270:ZN 0
4 *23:4 0.00223729
5 spare_xz[16] spare_xz[26] 0
6 spare_xz[16] spare_xz[4] 4.66162e-05
7 spare_xz[16] *258:I 0
8 spare_xz[16] *290:RN 0.000242142
9 spare_xz[16] *290:SETN 0.000510978
10 *297:I1 spare_xz[1] 0.000102293
11 *297:I1 spare_xz[4] 0
12 *297:I1 spare_xz[8] 6.1376e-05
13 *297:I1 *258:I 4.09172e-05
14 *297:I1 *297:S 0
15 spare_xfq[0] spare_xz[16] 0.000201299
16 spare_xz[10] spare_xz[16] 0.00174031
17 spare_xz[10] *297:I1 0
18 *297:I0 *297:I1 0.000241198
*RES
1 *270:ZN *23:4 4.5 
2 *23:4 spare_xz[16] 32.175 
3 *23:4 *297:I1 17.1 
*END

*D_NET *24 0.00453933
*CONN
*P spare_xz[17] O
*I *296:S I *D gf180mcu_fd_sc_mcu7t5v0__mux2_2
*I *271:ZN O *D gf180mcu_fd_sc_mcu7t5v0__tiel
*CAP
1 spare_xz[17] 0.000617311
2 *296:S 0
3 *271:ZN 0.0001325
4 *24:10 0.000749811
5 *24:10 spare_xz[24] 0
6 spare_xmx[1] *24:10 0.000248679
7 spare_xz[0] *24:10 0
8 spare_xz[12] *24:10 0.00019871
9 spare_xz[13] spare_xz[17] 2.23583e-05
10 spare_xz[15] spare_xz[17] 0.00222966
11 *20:9 spare_xz[17] 0.000340307
12 *22:9 spare_xz[17] 0
*RES
1 *271:ZN *24:10 15.48 
2 *24:10 *296:S 4.5 
3 *24:10 spare_xz[17] 11.655 
*END

*D_NET *25 0.00413493
*CONN
*P spare_xz[18] O
*I *297:S I *D gf180mcu_fd_sc_mcu7t5v0__mux2_2
*I *272:ZN O *D gf180mcu_fd_sc_mcu7t5v0__tiel
*CAP
1 spare_xz[18] 0.00150349
2 *297:S 0.000216346
3 *272:ZN 0
4 *25:4 0.00171983
5 spare_xz[18] spare_xz[4] 0.000222443
6 spare_xz[18] *298:A1 0
7 spare_xz[18] *298:A2 2.29885e-05
8 spare_xz[18] *42:7 6.12664e-05
9 *297:S spare_xz[1] 0.000388567
10 spare_xi[3] spare_xz[18] 0
11 *297:I1 *297:S 0
*RES
1 *272:ZN *25:4 4.5 
2 *25:4 *297:S 6.93 
3 *25:4 spare_xz[18] 23.985 
*END

*D_NET *26 0.00199496
*CONN
*P spare_xz[19] O
*I *290:D I *D gf180mcu_fd_sc_mcu7t5v0__dffrsnq_2
*I *273:ZN O *D gf180mcu_fd_sc_mcu7t5v0__tiel
*CAP
1 spare_xz[19] 0.000552659
2 *290:D 0.000202388
3 *273:ZN 0
4 *26:4 0.000755047
5 spare_xz[19] spare_xz[26] 0.000214815
6 *290:D *290:CLK 1.22751e-05
7 spare_xz[11] spare_xz[19] 1.22751e-05
8 spare_xz[11] *290:D 1.84127e-05
9 *300:A2 *290:D 0.00022709
*RES
1 *273:ZN *26:4 4.5 
2 *26:4 spare_xz[19] 5.355 
3 *26:4 *290:D 6.93 
*END

*D_NET *27 0.00584013
*CONN
*P spare_xz[1] O
*I *293:I I *D gf180mcu_fd_sc_mcu7t5v0__inv_2
*I *274:ZN O *D gf180mcu_fd_sc_mcu7t5v0__tiel
*CAP
1 spare_xz[1] 0.000717684
2 *293:I 0.00035346
3 *274:ZN 0
4 *27:4 0.00107114
5 spare_xz[1] spare_xz[3] 0.000184128
6 spare_xz[1] spare_xz[8] 0.00107605
7 spare_xz[1] *295:I 0.000373885
8 *293:I spare_xz[8] 0.000674842
9 *293:I *258:I 0
10 spare_xi[0] spare_xz[1] 4.09172e-05
11 spare_xmx[1] spare_xz[1] 1.79013e-05
12 spare_xz[13] spare_xz[1] 0.000467336
13 *292:I spare_xz[1] 0.000109161
14 *297:I0 spare_xz[1] 1.72619e-05
15 *297:I1 spare_xz[1] 0.000102293
16 *297:S spare_xz[1] 0.000388567
17 *16:7 spare_xz[1] 0.000245504
*RES
1 *274:ZN *27:4 4.5 
2 *27:4 *293:I 8.55 
3 *27:4 spare_xz[1] 11.385 
*END

*D_NET *28 0.0067939
*CONN
*P spare_xz[20] O
*I *291:D I *D gf180mcu_fd_sc_mcu7t5v0__dffrsnq_2
*I *275:ZN O *D gf180mcu_fd_sc_mcu7t5v0__tiel
*CAP
1 spare_xz[20] 0.00150463
2 *291:D 0.00018231
3 *275:ZN 0.000104155
4 *28:7 0.0017911
5 spare_xz[20] spare_xz[24] 0
6 *291:D *299:A1 0
7 *291:D *299:A2 1.53439e-05
8 spare_xib spare_xz[20] 0.0010637
9 spare_xib *28:7 0.000368146
10 spare_xz[13] spare_xz[20] 0.000832763
11 spare_xz[14] spare_xz[20] 0.000870375
12 *17:7 spare_xz[20] 6.1376e-05
*RES
1 *275:ZN *28:7 5.76 
2 *28:7 *291:D 6.3 
3 *28:7 spare_xz[20] 22.995 
*END

*D_NET *29 0.00480801
*CONN
*P spare_xz[21] O
*I *290:CLK I *D gf180mcu_fd_sc_mcu7t5v0__dffrsnq_2
*I *276:ZN O *D gf180mcu_fd_sc_mcu7t5v0__tiel
*CAP
1 spare_xz[21] 0.00194298
2 *290:CLK 0.000377297
3 *276:ZN 0
4 *29:4 0.00232028
5 spare_xz[21] spare_xz[28] 0
6 spare_xz[21] spare_xz[7] 0
7 spare_xz[21] spare_xz[9] 0
8 spare_xz[21] *298:A2 0
9 spare_xz[21] *300:A1 0
10 *290:CLK *300:A1 0
11 spare_xna[0] spare_xz[21] 4.47212e-05
12 *290:D *290:CLK 1.22751e-05
13 *300:A2 *290:CLK 0.000110452
*RES
1 *276:ZN *29:4 4.5 
2 *29:4 *290:CLK 8.19 
3 *29:4 spare_xz[21] 15.885 
*END

*D_NET *30 0.00644417
*CONN
*P spare_xz[22] O
*I *291:CLK I *D gf180mcu_fd_sc_mcu7t5v0__dffrsnq_2
*I *277:ZN O *D gf180mcu_fd_sc_mcu7t5v0__tiel
*CAP
1 spare_xz[22] 0.00120087
2 *291:CLK 0.000460159
3 *277:ZN 0
4 *30:4 0.00166103
5 spare_xz[22] spare_xz[26] 0.00042664
6 spare_xz[22] spare_xz[27] 3.37566e-05
7 *291:CLK spare_xz[25] 0.0018027
8 *291:CLK *299:A2 0.0001096
9 *291:CLK *31:7 1.84127e-05
10 *291:CLK *45:7 1.36999e-05
11 spare_xfq[0] *291:CLK 5.21584e-05
12 spare_xi[1] spare_xz[22] 0.00025471
13 spare_xi[1] *291:CLK 0.000410419
*RES
1 *277:ZN *30:4 4.5 
2 *30:4 spare_xz[22] 24.7833 
3 *30:4 *291:CLK 19.4207 
*END

*D_NET *31 0.00437464
*CONN
*P spare_xz[23] O
*I *290:SETN I *D gf180mcu_fd_sc_mcu7t5v0__dffrsnq_2
*I *278:ZN O *D gf180mcu_fd_sc_mcu7t5v0__tiel
*CAP
1 spare_xz[23] 0.00133128
2 *290:SETN 0.000201837
3 *278:ZN 4.9519e-05
4 *31:7 0.00158264
5 spare_xz[23] spare_xz[26] 0
6 *290:SETN spare_xz[26] 0
7 spare_xi[2] spare_xz[23] 0.000679981
8 spare_xno[1] spare_xz[23] 0
9 spare_xz[16] *290:SETN 0.000510978
10 *291:CLK *31:7 1.84127e-05
*RES
1 *278:ZN *31:7 9.54 
2 *31:7 *290:SETN 11.3207 
3 *31:7 spare_xz[23] 17.505 
*END

*D_NET *32 0.00490922
*CONN
*P spare_xz[24] O
*I *291:SETN I *D gf180mcu_fd_sc_mcu7t5v0__dffrsnq_2
*I *279:ZN O *D gf180mcu_fd_sc_mcu7t5v0__tiel
*CAP
1 spare_xz[24] 0.0016759
2 *291:SETN 0.000143553
3 *279:ZN 0
4 *32:4 0.00181946
5 spare_xz[24] spare_xz[9] 0.00025769
6 spare_xib spare_xz[24] 0
7 spare_xib *291:SETN 0
8 spare_xno[1] spare_xz[24] 0.000375813
9 spare_xno[1] *291:SETN 0.000363725
10 spare_xz[0] spare_xz[24] 6.44007e-05
11 spare_xz[20] spare_xz[24] 0
12 *301:A1 spare_xz[24] 0.000184127
13 *301:A2 spare_xz[24] 2.45503e-05
14 *24:10 spare_xz[24] 0
*RES
1 *279:ZN *32:4 4.5 
2 *32:4 spare_xz[24] 16.245 
3 *32:4 *291:SETN 6.28071 
*END

*D_NET *33 0.00679129
*CONN
*P spare_xz[25] O
*I *290:RN I *D gf180mcu_fd_sc_mcu7t5v0__dffrsnq_2
*I *280:ZN O *D gf180mcu_fd_sc_mcu7t5v0__tiel
*CAP
1 spare_xz[25] 0.00122249
2 *290:RN 0.000238799
3 *280:ZN 0
4 *33:5 0.00146129
5 spare_xz[25] *291:RN 0.00111906
6 spare_xfq[0] *290:RN 0.000145285
7 spare_xfq[1] spare_xz[25] 0.000559527
8 spare_xz[16] *290:RN 0.000242142
9 *291:CLK spare_xz[25] 0.0018027
*RES
1 *280:ZN *33:5 9 
2 *33:5 *290:RN 11.5055 
3 *33:5 spare_xz[25] 13.635 
*END

*D_NET *34 0.00628574
*CONN
*P spare_xz[26] O
*I *291:RN I *D gf180mcu_fd_sc_mcu7t5v0__dffrsnq_2
*I *281:ZN O *D gf180mcu_fd_sc_mcu7t5v0__tiel
*CAP
1 spare_xz[26] 0.00154473
2 *291:RN 0.000257531
3 *281:ZN 0
4 *34:4 0.00180226
5 spare_xi[2] spare_xz[26] 0.000509791
6 spare_xib spare_xz[26] 0.000270244
7 spare_xib *291:RN 5.52162e-05
8 spare_xno[1] spare_xz[26] 6.90477e-06
9 spare_xno[1] *291:RN 7.85464e-05
10 spare_xz[16] spare_xz[26] 0
11 spare_xz[19] spare_xz[26] 0.000214815
12 spare_xz[22] spare_xz[26] 0.00042664
13 spare_xz[23] spare_xz[26] 0
14 spare_xz[25] *291:RN 0.00111906
15 *290:SETN spare_xz[26] 0
*RES
1 *281:ZN *34:4 4.5 
2 *34:4 spare_xz[26] 27.225 
3 *34:4 *291:RN 16.3655 
*END

*D_NET *35 0.000602879
*CONN
*P spare_xz[27] O
*I *259:Z O *D gf180mcu_fd_sc_mcu7t5v0__tieh
*CAP
1 spare_xz[27] 0.000284561
2 *259:Z 0.000284561
3 spare_xz[22] spare_xz[27] 3.37566e-05
*RES
1 *259:Z spare_xz[27] 7.065 
*END

*D_NET *36 0.00152412
*CONN
*P spare_xz[28] O
*I *260:Z O *D gf180mcu_fd_sc_mcu7t5v0__tieh
*CAP
1 spare_xz[28] 0.000511353
2 *260:Z 0.000511353
3 spare_xz[28] *298:A1 4.90567e-05
4 spare_xz[28] *298:A2 0.000327339
5 spare_xna[0] spare_xz[28] 0.000125023
6 spare_xz[21] spare_xz[28] 0
*RES
1 *260:Z spare_xz[28] 14.175 
*END

*D_NET *37 0.000890728
*CONN
*P spare_xz[29] O
*I *261:Z O *D gf180mcu_fd_sc_mcu7t5v0__tieh
*CAP
1 spare_xz[29] 0.000445364
2 *261:Z 0.000445364
3 spare_xfq[1] spare_xz[29] 0
*RES
1 *261:Z spare_xz[29] 12.825 
*END

*D_NET *38 0.00225237
*CONN
*P spare_xz[2] O
*I *294:I I *D gf180mcu_fd_sc_mcu7t5v0__inv_2
*I *282:ZN O *D gf180mcu_fd_sc_mcu7t5v0__tiel
*CAP
1 spare_xz[2] 0.000174993
2 *294:I 0.000163019
3 *282:ZN 0.000141416
4 *38:9 0.000479428
5 spare_xi[1] spare_xz[2] 0.000329511
6 spare_xi[1] *38:9 0.00094493
7 spare_xna[1] *294:I 1.90703e-05
*RES
1 *282:ZN *38:9 6.57 
2 *38:9 spare_xz[2] 2.295 
3 *38:9 *294:I 6.16982 
*END

*D_NET *39 0.000494887
*CONN
*P spare_xz[30] O
*I *262:Z O *D gf180mcu_fd_sc_mcu7t5v0__tieh
*CAP
1 spare_xz[30] 0.000247443
2 *262:Z 0.000247443
*RES
1 *262:Z spare_xz[30] 11.475 
*END

*D_NET *40 0.00838321
*CONN
*P spare_xz[3] O
*I *295:I I *D gf180mcu_fd_sc_mcu7t5v0__inv_2
*I *283:ZN O *D gf180mcu_fd_sc_mcu7t5v0__tiel
*CAP
1 spare_xz[3] 0.00131683
2 *295:I 0.000164278
3 *283:ZN 0
4 *40:4 0.00148111
5 spare_xz[3] spare_xz[8] 0
6 *295:I spare_xz[8] 0.000173834
7 spare_xz[0] spare_xz[3] 0.00466229
8 spare_xz[12] spare_xz[3] 2.68519e-05
9 spare_xz[1] spare_xz[3] 0.000184128
10 spare_xz[1] *295:I 0.000373885
*RES
1 *283:ZN *40:4 4.5 
2 *40:4 *295:I 7.11 
3 *40:4 spare_xz[3] 32.938 
*END

*D_NET *41 0.00397395
*CONN
*P spare_xz[4] O
*I *258:I I *D gf180mcu_fd_sc_mcu7t5v0__inv_12
*I *284:ZN O *D gf180mcu_fd_sc_mcu7t5v0__tiel
*CAP
1 spare_xz[4] 0.0015124
2 *258:I 0.00031959
3 *284:ZN 0
4 *41:4 0.00183199
5 spare_xz[4] spare_xz[7] 0
6 spare_xz[10] spare_xz[4] 0
7 spare_xz[16] spare_xz[4] 4.66162e-05
8 spare_xz[16] *258:I 0
9 spare_xz[18] spare_xz[4] 0.000222443
10 *293:I *258:I 0
11 *297:I1 spare_xz[4] 0
12 *297:I1 *258:I 4.09172e-05
*RES
1 *284:ZN *41:4 4.5 
2 *41:4 *258:I 7.38 
3 *41:4 spare_xz[4] 23.625 
*END

*D_NET *42 0.00245198
*CONN
*P spare_xz[5] O
*I *298:A1 I *D gf180mcu_fd_sc_mcu7t5v0__nand2_2
*I *285:ZN O *D gf180mcu_fd_sc_mcu7t5v0__tiel
*CAP
1 spare_xz[5] 0.000824514
2 *298:A1 0.000149479
3 *285:ZN 1.14896e-05
4 *42:7 0.000985483
5 spare_xi[3] spare_xz[5] 0.00027277
6 spare_xi[3] *298:A1 9.79173e-05
7 spare_xz[18] *298:A1 0
8 spare_xz[18] *42:7 6.12664e-05
9 spare_xz[28] *298:A1 4.90567e-05
*RES
1 *285:ZN *42:7 9.18 
2 *42:7 *298:A1 10.62 
3 *42:7 spare_xz[5] 12.105 
*END

*D_NET *43 0.00160091
*CONN
*P spare_xz[6] O
*I *299:A1 I *D gf180mcu_fd_sc_mcu7t5v0__nand2_2
*I *286:ZN O *D gf180mcu_fd_sc_mcu7t5v0__tiel
*CAP
1 spare_xz[6] 0.000185516
2 *299:A1 0.000395548
3 *286:ZN 0
4 *43:4 0.000581064
5 *299:A1 *299:A2 2.45503e-05
6 spare_xib spare_xz[6] 0.000383544
7 spare_xib *299:A1 3.06879e-05
8 spare_xna[1] *299:A1 0
9 *291:D *299:A1 0
*RES
1 *286:ZN *43:4 4.5 
2 *43:4 spare_xz[6] 2.205 
3 *43:4 *299:A1 8.28 
*END

*D_NET *44 0.00330054
*CONN
*P spare_xz[7] O
*I *298:A2 I *D gf180mcu_fd_sc_mcu7t5v0__nand2_2
*I *287:ZN O *D gf180mcu_fd_sc_mcu7t5v0__tiel
*CAP
1 spare_xz[7] 0.00108032
2 *298:A2 0.00039479
3 *287:ZN 0
4 *44:4 0.00147511
5 spare_xz[18] *298:A2 2.29885e-05
6 spare_xz[21] spare_xz[7] 0
7 spare_xz[21] *298:A2 0
8 spare_xz[28] *298:A2 0.000327339
9 spare_xz[4] spare_xz[7] 0
*RES
1 *287:ZN *44:4 4.5 
2 *44:4 spare_xz[7] 13.815 
3 *44:4 *298:A2 7.74 
*END

*D_NET *45 0.00923186
*CONN
*P spare_xz[8] O
*I *299:A2 I *D gf180mcu_fd_sc_mcu7t5v0__nand2_2
*I *288:ZN O *D gf180mcu_fd_sc_mcu7t5v0__tiel
*CAP
1 spare_xz[8] 0.00261319
2 *299:A2 0.000221125
3 *288:ZN 0.000263557
4 *45:7 0.00309787
5 spare_xi[0] spare_xz[8] 0.000283046
6 spare_xi[1] *45:7 7.97665e-05
7 spare_xi[3] spare_xz[8] 0.000238708
8 spare_xmx[1] spare_xz[8] 0.00025769
9 spare_xz[13] spare_xz[8] 2.76191e-05
10 spare_xz[1] spare_xz[8] 0.00107605
11 spare_xz[3] spare_xz[8] 0
12 *291:D *299:A2 1.53439e-05
13 *291:CLK *299:A2 0.0001096
14 *291:CLK *45:7 1.36999e-05
15 *293:I spare_xz[8] 0.000674842
16 *295:I spare_xz[8] 0.000173834
17 *297:I1 spare_xz[8] 6.1376e-05
18 *299:A1 *299:A2 2.45503e-05
*RES
1 *288:ZN *45:7 6.75 
2 *45:7 *299:A2 6.66 
3 *45:7 spare_xz[8] 49.9989 
*END

*D_NET *46 0.00594959
*CONN
*P spare_xz[9] O
*I *300:A1 I *D gf180mcu_fd_sc_mcu7t5v0__nor2_2
*I *289:ZN O *D gf180mcu_fd_sc_mcu7t5v0__tiel
*CAP
1 spare_xz[9] 0.00190945
2 *300:A1 0.000393918
3 *289:ZN 0
4 *46:4 0.00230337
5 spare_xfq[0] spare_xz[9] 0.000870375
6 spare_xib spare_xz[9] 0.000187931
7 spare_xz[21] spare_xz[9] 0
8 spare_xz[21] *300:A1 0
9 spare_xz[24] spare_xz[9] 0.00025769
10 *290:CLK *300:A1 0
11 *300:A2 *300:A1 2.68519e-05
*RES
1 *289:ZN *46:4 4.5 
2 *46:4 *300:A1 7.83 
3 *46:4 spare_xz[9] 33.435 
*END
