*SPEF "IEEE 1481-1999"
*DESIGN "caravel"
*DATE "Tue Oct 17 03:15:36 2023"
*VENDOR "Synopsys Inc."
*PROGRAM "StarRC"
*VERSION "U-2022.12-SP4"
*DESIGN_FLOW "PIN_CAP NONE" "NAME_SCOPE LOCAL"
*DIVIDER /
*DELIMITER :
*BUS_DELIMITER []
*T_UNIT 1.0 NS
*C_UNIT 1.0 FF
*R_UNIT 1.0 OHM
*L_UNIT 1.0 HENRY

// COMMENTS

// CORNER_NAME 
// OPERATING_TEMPERATURE 125
// GLOBAL_TEMPERATURE 25
// TCAD_GRD_FILE /home/passant/caravel-gf180mcu/scripts/gf180mcu-tech/gf180mcu_1p5m_1tm_11k_sp_smim_OPTB_wst.nxtgrd
//   TCAD_TIME_STAMP Tue Dec 26 18:42:03 2017
//   TCADGRD_VERSION 75
// galaxy_comments_begin
//   local_nodeid
// galaxy_comments_end

*NAME_MAP
*461 clock
*462 flash_clk
*463 flash_csb
*464 flash_io0
*465 flash_io1
*466 gpio
*467 mprj_io[0]
*468 mprj_io[10]
*469 mprj_io[11]
*470 mprj_io[12]
*471 mprj_io[13]
*472 mprj_io[14]
*473 mprj_io[15]
*474 mprj_io[16]
*475 mprj_io[17]
*476 mprj_io[18]
*477 mprj_io[19]
*478 mprj_io[1]
*479 mprj_io[20]
*480 mprj_io[21]
*481 mprj_io[22]
*482 mprj_io[23]
*483 mprj_io[24]
*484 mprj_io[25]
*485 mprj_io[26]
*486 mprj_io[27]
*487 mprj_io[28]
*488 mprj_io[29]
*489 mprj_io[2]
*490 mprj_io[30]
*491 mprj_io[31]
*492 mprj_io[32]
*493 mprj_io[33]
*494 mprj_io[34]
*495 mprj_io[35]
*496 mprj_io[36]
*497 mprj_io[37]
*498 mprj_io[3]
*499 mprj_io[4]
*500 mprj_io[5]
*501 mprj_io[6]
*502 mprj_io[7]
*503 mprj_io[8]
*504 mprj_io[9]
*505 resetb
*506 chip_core
*507 padframe
*3 clock
*4 flash_clk
*5 flash_csb
*6 flash_io0
*7 flash_io1
*8 gpio
*9 mprj_io[0]
*10 mprj_io[10]
*11 mprj_io[11]
*12 mprj_io[12]
*13 mprj_io[13]
*14 mprj_io[14]
*15 mprj_io[15]
*16 mprj_io[16]
*17 mprj_io[17]
*18 mprj_io[18]
*19 mprj_io[19]
*20 mprj_io[1]
*21 mprj_io[20]
*22 mprj_io[21]
*23 mprj_io[22]
*24 mprj_io[23]
*25 mprj_io[24]
*26 mprj_io[25]
*27 mprj_io[26]
*28 mprj_io[27]
*29 mprj_io[28]
*30 mprj_io[29]
*31 mprj_io[2]
*32 mprj_io[30]
*33 mprj_io[31]
*34 mprj_io[32]
*35 mprj_io[33]
*36 mprj_io[34]
*37 mprj_io[35]
*38 mprj_io[36]
*39 mprj_io[37]
*40 mprj_io[3]
*41 mprj_io[4]
*42 mprj_io[5]
*43 mprj_io[6]
*44 mprj_io[7]
*45 mprj_io[8]
*46 mprj_io[9]
*47 resetb
*49 clock_core
*50 const_one[0]
*51 const_one[1]
*52 const_zero[0]
*53 const_zero[1]
*54 const_zero[2]
*55 const_zero[3]
*56 const_zero[4]
*57 const_zero[5]
*58 const_zero[6]
*59 const_zero[7]
*60 const_zero[8]
*61 const_zero[9]
*62 flash_clk_frame
*63 flash_clk_oe
*64 flash_csb_frame
*65 flash_csb_oe
*66 flash_io0_di
*67 flash_io0_do
*68 flash_io0_ie
*69 flash_io0_oe
*70 flash_io1_di
*71 flash_io1_do
*72 flash_io1_ie
*73 flash_io1_oe
*74 gpio_drive_select_core[0]
*75 gpio_drive_select_core[1]
*76 gpio_in_core
*77 gpio_inenb_core
*78 gpio_out_core
*79 gpio_outenb_core
*80 mprj_io_drive_sel[0]
*81 mprj_io_drive_sel[10]
*82 mprj_io_drive_sel[11]
*83 mprj_io_drive_sel[12]
*84 mprj_io_drive_sel[13]
*85 mprj_io_drive_sel[14]
*86 mprj_io_drive_sel[15]
*87 mprj_io_drive_sel[16]
*88 mprj_io_drive_sel[17]
*89 mprj_io_drive_sel[18]
*90 mprj_io_drive_sel[19]
*91 mprj_io_drive_sel[1]
*92 mprj_io_drive_sel[20]
*93 mprj_io_drive_sel[21]
*94 mprj_io_drive_sel[22]
*95 mprj_io_drive_sel[23]
*96 mprj_io_drive_sel[24]
*97 mprj_io_drive_sel[25]
*98 mprj_io_drive_sel[26]
*99 mprj_io_drive_sel[27]
*100 mprj_io_drive_sel[28]
*101 mprj_io_drive_sel[29]
*102 mprj_io_drive_sel[2]
*103 mprj_io_drive_sel[30]
*104 mprj_io_drive_sel[31]
*105 mprj_io_drive_sel[32]
*106 mprj_io_drive_sel[33]
*107 mprj_io_drive_sel[34]
*108 mprj_io_drive_sel[35]
*109 mprj_io_drive_sel[36]
*110 mprj_io_drive_sel[37]
*111 mprj_io_drive_sel[38]
*112 mprj_io_drive_sel[39]
*113 mprj_io_drive_sel[3]
*114 mprj_io_drive_sel[40]
*115 mprj_io_drive_sel[41]
*116 mprj_io_drive_sel[42]
*117 mprj_io_drive_sel[43]
*118 mprj_io_drive_sel[44]
*119 mprj_io_drive_sel[45]
*120 mprj_io_drive_sel[46]
*121 mprj_io_drive_sel[47]
*122 mprj_io_drive_sel[48]
*123 mprj_io_drive_sel[49]
*124 mprj_io_drive_sel[4]
*125 mprj_io_drive_sel[50]
*126 mprj_io_drive_sel[51]
*127 mprj_io_drive_sel[52]
*128 mprj_io_drive_sel[53]
*129 mprj_io_drive_sel[54]
*130 mprj_io_drive_sel[55]
*131 mprj_io_drive_sel[56]
*132 mprj_io_drive_sel[57]
*133 mprj_io_drive_sel[58]
*134 mprj_io_drive_sel[59]
*135 mprj_io_drive_sel[5]
*136 mprj_io_drive_sel[60]
*137 mprj_io_drive_sel[61]
*138 mprj_io_drive_sel[62]
*139 mprj_io_drive_sel[63]
*140 mprj_io_drive_sel[64]
*141 mprj_io_drive_sel[65]
*142 mprj_io_drive_sel[66]
*143 mprj_io_drive_sel[67]
*144 mprj_io_drive_sel[68]
*145 mprj_io_drive_sel[69]
*146 mprj_io_drive_sel[6]
*147 mprj_io_drive_sel[70]
*148 mprj_io_drive_sel[71]
*149 mprj_io_drive_sel[72]
*150 mprj_io_drive_sel[73]
*151 mprj_io_drive_sel[74]
*152 mprj_io_drive_sel[75]
*153 mprj_io_drive_sel[7]
*154 mprj_io_drive_sel[8]
*155 mprj_io_drive_sel[9]
*156 mprj_io_ie[0]
*157 mprj_io_ie[10]
*158 mprj_io_ie[11]
*159 mprj_io_ie[12]
*160 mprj_io_ie[13]
*161 mprj_io_ie[14]
*162 mprj_io_ie[15]
*163 mprj_io_ie[16]
*164 mprj_io_ie[17]
*165 mprj_io_ie[18]
*166 mprj_io_ie[19]
*167 mprj_io_ie[1]
*168 mprj_io_ie[20]
*169 mprj_io_ie[21]
*170 mprj_io_ie[22]
*171 mprj_io_ie[23]
*172 mprj_io_ie[24]
*173 mprj_io_ie[25]
*174 mprj_io_ie[26]
*175 mprj_io_ie[27]
*176 mprj_io_ie[28]
*177 mprj_io_ie[29]
*178 mprj_io_ie[2]
*179 mprj_io_ie[30]
*180 mprj_io_ie[31]
*181 mprj_io_ie[32]
*182 mprj_io_ie[33]
*183 mprj_io_ie[34]
*184 mprj_io_ie[35]
*185 mprj_io_ie[36]
*186 mprj_io_ie[37]
*187 mprj_io_ie[3]
*188 mprj_io_ie[4]
*189 mprj_io_ie[5]
*190 mprj_io_ie[6]
*191 mprj_io_ie[7]
*192 mprj_io_ie[8]
*193 mprj_io_ie[9]
*194 mprj_io_in[0]
*195 mprj_io_in[10]
*196 mprj_io_in[11]
*197 mprj_io_in[12]
*198 mprj_io_in[13]
*199 mprj_io_in[14]
*200 mprj_io_in[15]
*201 mprj_io_in[16]
*202 mprj_io_in[17]
*203 mprj_io_in[18]
*204 mprj_io_in[19]
*205 mprj_io_in[1]
*206 mprj_io_in[20]
*207 mprj_io_in[21]
*208 mprj_io_in[22]
*209 mprj_io_in[23]
*210 mprj_io_in[24]
*211 mprj_io_in[25]
*212 mprj_io_in[26]
*213 mprj_io_in[27]
*214 mprj_io_in[28]
*215 mprj_io_in[29]
*216 mprj_io_in[2]
*217 mprj_io_in[30]
*218 mprj_io_in[31]
*219 mprj_io_in[32]
*220 mprj_io_in[33]
*221 mprj_io_in[34]
*222 mprj_io_in[35]
*223 mprj_io_in[36]
*224 mprj_io_in[37]
*225 mprj_io_in[3]
*226 mprj_io_in[4]
*227 mprj_io_in[5]
*228 mprj_io_in[6]
*229 mprj_io_in[7]
*230 mprj_io_in[8]
*231 mprj_io_in[9]
*232 mprj_io_oe[0]
*233 mprj_io_oe[10]
*234 mprj_io_oe[11]
*235 mprj_io_oe[12]
*236 mprj_io_oe[13]
*237 mprj_io_oe[14]
*238 mprj_io_oe[15]
*239 mprj_io_oe[16]
*240 mprj_io_oe[17]
*241 mprj_io_oe[18]
*242 mprj_io_oe[19]
*243 mprj_io_oe[1]
*244 mprj_io_oe[20]
*245 mprj_io_oe[21]
*246 mprj_io_oe[22]
*247 mprj_io_oe[23]
*248 mprj_io_oe[24]
*249 mprj_io_oe[25]
*250 mprj_io_oe[26]
*251 mprj_io_oe[27]
*252 mprj_io_oe[28]
*253 mprj_io_oe[29]
*254 mprj_io_oe[2]
*255 mprj_io_oe[30]
*256 mprj_io_oe[31]
*257 mprj_io_oe[32]
*258 mprj_io_oe[33]
*259 mprj_io_oe[34]
*260 mprj_io_oe[35]
*261 mprj_io_oe[36]
*262 mprj_io_oe[37]
*263 mprj_io_oe[3]
*264 mprj_io_oe[4]
*265 mprj_io_oe[5]
*266 mprj_io_oe[6]
*267 mprj_io_oe[7]
*268 mprj_io_oe[8]
*269 mprj_io_oe[9]
*270 mprj_io_out[0]
*271 mprj_io_out[10]
*272 mprj_io_out[11]
*273 mprj_io_out[12]
*274 mprj_io_out[13]
*275 mprj_io_out[14]
*276 mprj_io_out[15]
*277 mprj_io_out[16]
*278 mprj_io_out[17]
*279 mprj_io_out[18]
*280 mprj_io_out[19]
*281 mprj_io_out[1]
*282 mprj_io_out[20]
*283 mprj_io_out[21]
*284 mprj_io_out[22]
*285 mprj_io_out[23]
*286 mprj_io_out[24]
*287 mprj_io_out[25]
*288 mprj_io_out[26]
*289 mprj_io_out[27]
*290 mprj_io_out[28]
*291 mprj_io_out[29]
*292 mprj_io_out[2]
*293 mprj_io_out[30]
*294 mprj_io_out[31]
*295 mprj_io_out[32]
*296 mprj_io_out[33]
*297 mprj_io_out[34]
*298 mprj_io_out[35]
*299 mprj_io_out[36]
*300 mprj_io_out[37]
*301 mprj_io_out[3]
*302 mprj_io_out[4]
*303 mprj_io_out[5]
*304 mprj_io_out[6]
*305 mprj_io_out[7]
*306 mprj_io_out[8]
*307 mprj_io_out[9]
*308 mprj_io_pulldown_sel[0]
*309 mprj_io_pulldown_sel[10]
*310 mprj_io_pulldown_sel[11]
*311 mprj_io_pulldown_sel[12]
*312 mprj_io_pulldown_sel[13]
*313 mprj_io_pulldown_sel[14]
*314 mprj_io_pulldown_sel[15]
*315 mprj_io_pulldown_sel[16]
*316 mprj_io_pulldown_sel[17]
*317 mprj_io_pulldown_sel[18]
*318 mprj_io_pulldown_sel[19]
*319 mprj_io_pulldown_sel[1]
*320 mprj_io_pulldown_sel[20]
*321 mprj_io_pulldown_sel[21]
*322 mprj_io_pulldown_sel[22]
*323 mprj_io_pulldown_sel[23]
*324 mprj_io_pulldown_sel[24]
*325 mprj_io_pulldown_sel[25]
*326 mprj_io_pulldown_sel[26]
*327 mprj_io_pulldown_sel[27]
*328 mprj_io_pulldown_sel[28]
*329 mprj_io_pulldown_sel[29]
*330 mprj_io_pulldown_sel[2]
*331 mprj_io_pulldown_sel[30]
*332 mprj_io_pulldown_sel[31]
*333 mprj_io_pulldown_sel[32]
*334 mprj_io_pulldown_sel[33]
*335 mprj_io_pulldown_sel[34]
*336 mprj_io_pulldown_sel[35]
*337 mprj_io_pulldown_sel[36]
*338 mprj_io_pulldown_sel[37]
*339 mprj_io_pulldown_sel[3]
*340 mprj_io_pulldown_sel[4]
*341 mprj_io_pulldown_sel[5]
*342 mprj_io_pulldown_sel[6]
*343 mprj_io_pulldown_sel[7]
*344 mprj_io_pulldown_sel[8]
*345 mprj_io_pulldown_sel[9]
*346 mprj_io_pullup_sel[0]
*347 mprj_io_pullup_sel[10]
*348 mprj_io_pullup_sel[11]
*349 mprj_io_pullup_sel[12]
*350 mprj_io_pullup_sel[13]
*351 mprj_io_pullup_sel[14]
*352 mprj_io_pullup_sel[15]
*353 mprj_io_pullup_sel[16]
*354 mprj_io_pullup_sel[17]
*355 mprj_io_pullup_sel[18]
*356 mprj_io_pullup_sel[19]
*357 mprj_io_pullup_sel[1]
*358 mprj_io_pullup_sel[20]
*359 mprj_io_pullup_sel[21]
*360 mprj_io_pullup_sel[22]
*361 mprj_io_pullup_sel[23]
*362 mprj_io_pullup_sel[24]
*363 mprj_io_pullup_sel[25]
*364 mprj_io_pullup_sel[26]
*365 mprj_io_pullup_sel[27]
*366 mprj_io_pullup_sel[28]
*367 mprj_io_pullup_sel[29]
*368 mprj_io_pullup_sel[2]
*369 mprj_io_pullup_sel[30]
*370 mprj_io_pullup_sel[31]
*371 mprj_io_pullup_sel[32]
*372 mprj_io_pullup_sel[33]
*373 mprj_io_pullup_sel[34]
*374 mprj_io_pullup_sel[35]
*375 mprj_io_pullup_sel[36]
*376 mprj_io_pullup_sel[37]
*377 mprj_io_pullup_sel[3]
*378 mprj_io_pullup_sel[4]
*379 mprj_io_pullup_sel[5]
*380 mprj_io_pullup_sel[6]
*381 mprj_io_pullup_sel[7]
*382 mprj_io_pullup_sel[8]
*383 mprj_io_pullup_sel[9]
*384 mprj_io_schmitt_sel[0]
*385 mprj_io_schmitt_sel[10]
*386 mprj_io_schmitt_sel[11]
*387 mprj_io_schmitt_sel[12]
*388 mprj_io_schmitt_sel[13]
*389 mprj_io_schmitt_sel[14]
*390 mprj_io_schmitt_sel[15]
*391 mprj_io_schmitt_sel[16]
*392 mprj_io_schmitt_sel[17]
*393 mprj_io_schmitt_sel[18]
*394 mprj_io_schmitt_sel[19]
*395 mprj_io_schmitt_sel[1]
*396 mprj_io_schmitt_sel[20]
*397 mprj_io_schmitt_sel[21]
*398 mprj_io_schmitt_sel[22]
*399 mprj_io_schmitt_sel[23]
*400 mprj_io_schmitt_sel[24]
*401 mprj_io_schmitt_sel[25]
*402 mprj_io_schmitt_sel[26]
*403 mprj_io_schmitt_sel[27]
*404 mprj_io_schmitt_sel[28]
*405 mprj_io_schmitt_sel[29]
*406 mprj_io_schmitt_sel[2]
*407 mprj_io_schmitt_sel[30]
*408 mprj_io_schmitt_sel[31]
*409 mprj_io_schmitt_sel[32]
*410 mprj_io_schmitt_sel[33]
*411 mprj_io_schmitt_sel[34]
*412 mprj_io_schmitt_sel[35]
*413 mprj_io_schmitt_sel[36]
*414 mprj_io_schmitt_sel[37]
*415 mprj_io_schmitt_sel[3]
*416 mprj_io_schmitt_sel[4]
*417 mprj_io_schmitt_sel[5]
*418 mprj_io_schmitt_sel[6]
*419 mprj_io_schmitt_sel[7]
*420 mprj_io_schmitt_sel[8]
*421 mprj_io_schmitt_sel[9]
*422 mprj_io_slew_sel[0]
*423 mprj_io_slew_sel[10]
*424 mprj_io_slew_sel[11]
*425 mprj_io_slew_sel[12]
*426 mprj_io_slew_sel[13]
*427 mprj_io_slew_sel[14]
*428 mprj_io_slew_sel[15]
*429 mprj_io_slew_sel[16]
*430 mprj_io_slew_sel[17]
*431 mprj_io_slew_sel[18]
*432 mprj_io_slew_sel[19]
*433 mprj_io_slew_sel[1]
*434 mprj_io_slew_sel[20]
*435 mprj_io_slew_sel[21]
*436 mprj_io_slew_sel[22]
*437 mprj_io_slew_sel[23]
*438 mprj_io_slew_sel[24]
*439 mprj_io_slew_sel[25]
*440 mprj_io_slew_sel[26]
*441 mprj_io_slew_sel[27]
*442 mprj_io_slew_sel[28]
*443 mprj_io_slew_sel[29]
*444 mprj_io_slew_sel[2]
*445 mprj_io_slew_sel[30]
*446 mprj_io_slew_sel[31]
*447 mprj_io_slew_sel[32]
*448 mprj_io_slew_sel[33]
*449 mprj_io_slew_sel[34]
*450 mprj_io_slew_sel[35]
*451 mprj_io_slew_sel[36]
*452 mprj_io_slew_sel[37]
*453 mprj_io_slew_sel[3]
*454 mprj_io_slew_sel[4]
*455 mprj_io_slew_sel[5]
*456 mprj_io_slew_sel[6]
*457 mprj_io_slew_sel[7]
*458 mprj_io_slew_sel[8]
*459 mprj_io_slew_sel[9]
*460 rstb

*PORTS

*461 I
*462 B
*463 B
*464 B
*465 B
*466 B
*467 B
*468 B
*469 B
*470 B
*471 B
*472 B
*473 B
*474 B
*475 B
*476 B
*477 B
*478 B
*479 B
*480 B
*481 B
*482 B
*483 B
*484 B
*485 B
*486 B
*487 B
*488 B
*489 B
*490 B
*491 B
*492 B
*493 B
*494 B
*495 B
*496 B
*497 B
*498 B
*499 B
*500 B
*501 B
*502 B
*503 B
*504 B
*505 I

*D_NET *3 0

*CONN
*P *461 I *C 1112.5000 32.0000
*I *507:clock B *C 1112.5000 32.0000 *D chip_io

*CAP
1 *3:2 0.0

*RES
1 *461 *507:clock 0.001
2 *507:clock *3:2 0.0525524
*END

*D_NET *4 0

*CONN
*P *462 B *C 1937.5000 32.0000
*I *507:flash_clk B *C 1937.5000 32.0000 *D chip_io

*CAP
1 *4:2 0.0

*RES
1 *462 *507:flash_clk 0.001
2 *507:flash_clk *4:2 0.0525524
*END

*D_NET *5 0

*CONN
*P *463 B *C 1662.5000 32.0000
*I *507:flash_csb B *C 1662.5000 32.0000 *D chip_io

*CAP
1 *5:2 0.0

*RES
1 *463 *507:flash_csb 0.001
2 *507:flash_csb *5:2 0.0525524
*END

*D_NET *6 0

*CONN
*P *464 B *C 2212.5000 32.0000
*I *507:flash_io0 B *C 2212.5000 32.0000 *D chip_io

*CAP
1 *6:2 0.0

*RES
1 *464 *507:flash_io0 0.001
2 *507:flash_io0 *6:2 0.0525524
*END

*D_NET *7 0

*CONN
*P *465 B *C 2487.5000 32.0000
*I *507:flash_io1 B *C 2487.5000 32.0000 *D chip_io

*CAP
1 *7:2 0.0

*RES
1 *465 *507:flash_io1 0.001
2 *507:flash_io1 *7:2 0.0525524
*END

*D_NET *8 0

*CONN
*P *466 B *C 2762.5000 32.0000
*I *507:gpio B *C 2762.5000 32.0000 *D chip_io

*CAP
1 *8:2 0.0

*RES
1 *466 *507:gpio 0.001
2 *507:gpio *8:2 0.0525524
*END

*D_NET *9 0

*CONN
*P *467 B *C 3848.0000 482.5000
*I *507:mprj_io[0] B *C 3848.0000 482.5000 *D chip_io

*CAP
1 *9:2 0.0

*RES
1 *467 *507:mprj_io[0] 0.001
2 *507:mprj_io[0] *9:2 0.0525524
*END

*D_NET *10 0

*CONN
*P *468 B *C 3848.0000 3277.5000
*I *507:mprj_io[10] B *C 3848.0000 3277.5000 *D chip_io

*CAP
1 *10:2 0.0

*RES
1 *468 *507:mprj_io[10] 0.001
2 *507:mprj_io[10] *10:2 0.0525524
*END

*D_NET *11 0

*CONN
*P *469 B *C 3848.0000 3492.5000
*I *507:mprj_io[11] B *C 3848.0000 3492.5000 *D chip_io

*CAP
1 *11:2 0.0

*RES
1 *469 *507:mprj_io[11] 0.001
2 *507:mprj_io[11] *11:2 0.0525524
*END

*D_NET *12 0

*CONN
*P *470 B *C 3848.0000 3707.5000
*I *507:mprj_io[12] B *C 3848.0000 3707.5000 *D chip_io

*CAP
1 *12:2 0.0

*RES
1 *470 *507:mprj_io[12] 0.001
2 *507:mprj_io[12] *12:2 0.0525524
*END

*D_NET *13 0

*CONN
*P *471 B *C 3848.0000 4137.5000
*I *507:mprj_io[13] B *C 3848.0000 4137.5000 *D chip_io

*CAP
1 *13:2 0.0

*RES
1 *471 *507:mprj_io[13] 0.001
2 *507:mprj_io[13] *13:2 0.0525524
*END

*D_NET *14 0

*CONN
*P *472 B *C 3848.0000 4567.5000
*I *507:mprj_io[14] B *C 3848.0000 4567.5000 *D chip_io

*CAP
1 *14:2 0.0

*RES
1 *472 *507:mprj_io[14] 0.001
2 *507:mprj_io[14] *14:2 0.0525524
*END

*D_NET *15 0

*CONN
*P *473 B *C 3307.5000 5038.0000
*I *507:mprj_io[15] B *C 3307.5000 5038.0000 *D chip_io

*CAP
1 *15:2 0.0

*RES
1 *473 *507:mprj_io[15] 0.001
2 *507:mprj_io[15] *15:2 0.0525524
*END

*D_NET *16 0

*CONN
*P *474 B *C 2757.5000 5038.0000
*I *507:mprj_io[16] B *C 2757.5000 5038.0000 *D chip_io

*CAP
1 *16:2 0.0

*RES
1 *474 *507:mprj_io[16] 0.001
2 *507:mprj_io[16] *16:2 0.0525524
*END

*D_NET *17 0

*CONN
*P *475 B *C 2482.5000 5038.0000
*I *507:mprj_io[17] B *C 2482.5000 5038.0000 *D chip_io

*CAP
1 *17:2 0.0

*RES
1 *475 *507:mprj_io[17] 0.001
2 *507:mprj_io[17] *17:2 0.0525524
*END

*D_NET *18 0

*CONN
*P *476 B *C 2207.5000 5038.0000
*I *507:mprj_io[18] B *C 2207.5000 5038.0000 *D chip_io

*CAP
1 *18:2 0.0

*RES
1 *476 *507:mprj_io[18] 0.001
2 *507:mprj_io[18] *18:2 0.0525524
*END

*D_NET *19 0

*CONN
*P *477 B *C 1657.5000 5038.0000
*I *507:mprj_io[19] B *C 1657.5000 5038.0000 *D chip_io

*CAP
1 *19:2 0.0

*RES
1 *477 *507:mprj_io[19] 0.001
2 *507:mprj_io[19] *19:2 0.0525524
*END

*D_NET *20 0

*CONN
*P *478 B *C 3848.0000 697.5000
*I *507:mprj_io[1] B *C 3848.0000 697.5000 *D chip_io

*CAP
1 *20:2 0.0

*RES
1 *478 *507:mprj_io[1] 0.001
2 *507:mprj_io[1] *20:2 0.0525524
*END

*D_NET *21 0

*CONN
*P *479 B *C 1382.5000 5038.0000
*I *507:mprj_io[20] B *C 1382.5000 5038.0000 *D chip_io

*CAP
1 *21:2 0.0

*RES
1 *479 *507:mprj_io[20] 0.001
2 *507:mprj_io[20] *21:2 0.0525524
*END

*D_NET *22 0

*CONN
*P *480 B *C 1107.5000 5038.0000
*I *507:mprj_io[21] B *C 1107.5000 5038.0000 *D chip_io

*CAP
1 *22:2 0.0

*RES
1 *480 *507:mprj_io[21] 0.001
2 *507:mprj_io[21] *22:2 0.0525524
*END

*D_NET *23 0

*CONN
*P *481 B *C 832.5000 5038.0000
*I *507:mprj_io[22] B *C 832.5000 5038.0000 *D chip_io

*CAP
1 *23:2 0.0

*RES
1 *481 *507:mprj_io[22] 0.001
2 *507:mprj_io[22] *23:2 0.0525524
*END

*D_NET *24 0

*CONN
*P *482 B *C 557.5000 5038.0000
*I *507:mprj_io[23] B *C 557.5000 5038.0000 *D chip_io

*CAP
1 *24:2 0.0

*RES
1 *482 *507:mprj_io[23] 0.001
2 *507:mprj_io[23] *24:2 0.0525524
*END

*D_NET *25 0

*CONN
*P *483 B *C 32.0000 4562.5000
*I *507:mprj_io[24] B *C 32.0000 4562.5000 *D chip_io

*CAP
1 *25:2 0.0

*RES
1 *483 *507:mprj_io[24] 0.001
2 *507:mprj_io[24] *25:2 0.0525524
*END

*D_NET *26 0

*CONN
*P *484 B *C 32.0000 3742.5000
*I *507:mprj_io[25] B *C 32.0000 3742.5000 *D chip_io

*CAP
1 *26:2 0.0

*RES
1 *484 *507:mprj_io[25] 0.001
2 *507:mprj_io[25] *26:2 0.0525524
*END

*D_NET *27 0

*CONN
*P *485 B *C 32.0000 3537.5000
*I *507:mprj_io[26] B *C 32.0000 3537.5000 *D chip_io

*CAP
1 *27:2 0.0

*RES
1 *485 *507:mprj_io[26] 0.001
2 *507:mprj_io[26] *27:2 0.0525524
*END

*D_NET *28 0

*CONN
*P *486 B *C 32.0000 3332.5000
*I *507:mprj_io[27] B *C 32.0000 3332.5000 *D chip_io

*CAP
1 *28:2 0.0

*RES
1 *486 *507:mprj_io[27] 0.001
2 *507:mprj_io[27] *28:2 0.0525524
*END

*D_NET *29 0

*CONN
*P *487 B *C 32.0000 3123.7500
*I *507:mprj_io[28] B *C 32.0000 3123.7500 *D chip_io

*CAP
1 *29:11 0.0

*RES
1 *487 *507:mprj_io[28] 0.001
2 *507:mprj_io[28] *29:8 0.0306556
3 *507:mprj_io[28] *29:9 0.0153278
4 *29:2 *29:3 0.001
5 *29:3 *29:11 0.00218968
6 *29:3 *29:9 0.0153278
7 *29:3 *29:4 0.001
8 *29:3 *29:5 0.001
9 *29:6 *29:7 0.001
10 *29:7 *29:10 0.00437937
11 *29:7 *29:11 0.00218968
*END

*D_NET *30 0

*CONN
*P *488 B *C 32.0000 2922.5000
*I *507:mprj_io[29] B *C 32.0000 2922.5000 *D chip_io

*CAP
1 *30:2 0.0

*RES
1 *488 *507:mprj_io[29] 0.001
2 *507:mprj_io[29] *30:2 0.0525524
*END

*D_NET *31 0

*CONN
*P *489 B *C 3848.0000 912.5000
*I *507:mprj_io[2] B *C 3848.0000 912.5000 *D chip_io

*CAP
1 *31:2 0.0

*RES
1 *489 *507:mprj_io[2] 0.001
2 *507:mprj_io[2] *31:2 0.0525524
*END

*D_NET *32 0

*CONN
*P *490 B *C 32.0000 2717.5000
*I *507:mprj_io[30] B *C 32.0000 2717.5000 *D chip_io

*CAP
1 *32:2 0.0

*RES
1 *490 *507:mprj_io[30] 0.001
2 *507:mprj_io[30] *32:2 0.0525524
*END

*D_NET *33 0

*CONN
*P *491 B *C 32.0000 2512.5000
*I *507:mprj_io[31] B *C 32.0000 2512.5000 *D chip_io

*CAP
1 *33:2 0.0

*RES
1 *491 *507:mprj_io[31] 0.001
2 *507:mprj_io[31] *33:2 0.0525524
*END

*D_NET *34 0

*CONN
*P *492 B *C 32.0000 1897.5000
*I *507:mprj_io[32] B *C 32.0000 1897.5000 *D chip_io

*CAP
1 *34:2 0.0

*RES
1 *492 *507:mprj_io[32] 0.001
2 *507:mprj_io[32] *34:2 0.0525524
*END

*D_NET *35 0

*CONN
*P *493 B *C 32.0000 1692.5000
*I *507:mprj_io[33] B *C 32.0000 1692.5000 *D chip_io

*CAP
1 *35:2 0.0

*RES
1 *493 *507:mprj_io[33] 0.001
2 *507:mprj_io[33] *35:2 0.0525524
*END

*D_NET *36 0

*CONN
*P *494 B *C 32.0000 1487.5000
*I *507:mprj_io[34] B *C 32.0000 1487.5000 *D chip_io

*CAP
1 *36:2 0.0

*RES
1 *494 *507:mprj_io[34] 0.001
2 *507:mprj_io[34] *36:2 0.0525524
*END

*D_NET *37 0

*CONN
*P *495 B *C 32.0000 1282.5000
*I *507:mprj_io[35] B *C 32.0000 1282.5000 *D chip_io

*CAP
1 *37:2 0.0

*RES
1 *495 *507:mprj_io[35] 0.001
2 *507:mprj_io[35] *37:2 0.0525524
*END

*D_NET *38 0

*CONN
*P *496 B *C 32.0000 1048.7500
*I *507:mprj_io[36] B *C 32.0000 1048.7500 *D chip_io

*CAP
1 *38:10 0.0

*RES
1 *496 *507:mprj_io[36] 0.001
2 *507:mprj_io[36] *38:8 0.00145979
3 *507:mprj_io[36] *38:3 0.000729894
4 *38:2 *38:3 0.001
5 *38:3 *38:10 0.0167876
6 *38:3 *38:4 0.001
7 *38:3 *38:5 0.001
8 *38:6 *38:7 0.001
9 *38:7 *38:9 0.0335751
10 *38:7 *38:10 0.0167876
*END

*D_NET *39 0

*CONN
*P *497 B *C 32.0000 872.5000
*I *507:mprj_io[37] B *C 32.0000 872.5000 *D chip_io

*CAP
1 *39:2 0.0

*RES
1 *497 *507:mprj_io[37] 0.001
2 *507:mprj_io[37] *39:2 0.0525524
*END

*D_NET *40 0

*CONN
*P *498 B *C 3848.0000 1127.5000
*I *507:mprj_io[3] B *C 3848.0000 1127.5000 *D chip_io

*CAP
1 *40:2 0.0

*RES
1 *498 *507:mprj_io[3] 0.001
2 *507:mprj_io[3] *40:2 0.0525524
*END

*D_NET *41 0

*CONN
*P *499 B *C 3848.0000 1342.5000
*I *507:mprj_io[4] B *C 3848.0000 1342.5000 *D chip_io

*CAP
1 *41:2 0.0

*RES
1 *499 *507:mprj_io[4] 0.001
2 *507:mprj_io[4] *41:2 0.0525524
*END

*D_NET *42 0

*CONN
*P *500 B *C 3848.0000 1551.2500
*I *507:mprj_io[5] B *C 3848.0000 1551.2500 *D chip_io

*CAP
1 *42:11 0.0

*RES
1 *500 *507:mprj_io[5] 0.001
2 *507:mprj_io[5] *42:8 0.027736
3 *507:mprj_io[5] *42:9 0.013868
4 *42:2 *42:3 0.001
5 *42:3 *42:11 0.00364947
6 *42:3 *42:9 0.013868
7 *42:3 *42:4 0.001
8 *42:3 *42:5 0.001
9 *42:6 *42:7 0.001
10 *42:7 *42:10 0.00729894
11 *42:7 *42:11 0.00364947
*END

*D_NET *43 0

*CONN
*P *501 B *C 3848.0000 1772.5000
*I *507:mprj_io[6] B *C 3848.0000 1772.5000 *D chip_io

*CAP
1 *43:2 0.0

*RES
1 *501 *507:mprj_io[6] 0.001
2 *507:mprj_io[6] *43:2 0.0525524
*END

*D_NET *44 0

*CONN
*P *502 B *C 3848.0000 2613.7500
*I *507:mprj_io[7] B *C 3848.0000 2613.7500 *D chip_io

*CAP
1 *44:11 0.0

*RES
1 *502 *507:mprj_io[7] 0.001
2 *507:mprj_io[7] *44:8 0.0131381
3 *507:mprj_io[7] *44:9 0.00656905
4 *44:2 *44:3 0.001
5 *44:3 *44:11 0.0109484
6 *44:3 *44:9 0.00656905
7 *44:3 *44:4 0.001
8 *44:3 *44:5 0.001
9 *44:6 *44:7 0.001
10 *44:7 *44:10 0.0218968
11 *44:7 *44:11 0.0109484
*END

*D_NET *45 0

*CONN
*P *503 B *C 3848.0000 2847.5000
*I *507:mprj_io[8] B *C 3848.0000 2847.5000 *D chip_io

*CAP
1 *45:2 0.0

*RES
1 *503 *507:mprj_io[8] 0.001
2 *507:mprj_io[8] *45:2 0.0525524
*END

*D_NET *46 0

*CONN
*P *504 B *C 3848.0000 3062.5000
*I *507:mprj_io[9] B *C 3848.0000 3062.5000 *D chip_io

*CAP
1 *46:2 0.0

*RES
1 *504 *507:mprj_io[9] 0.001
2 *507:mprj_io[9] *46:2 0.0525524
*END

*D_NET *47 0

*CONN
*P *505 I *C 837.5000 32.0000
*I *507:resetb B *C 837.5000 32.0000 *D chip_io

*CAP
1 *47:2 0.0

*RES
1 *505 *507:resetb 0.001
2 *507:resetb *47:2 0.0525524
*END

*D_NET *49 0

*CONN
*I *506:clock_core I *C 1146.0500 351.0000
*I *507:clock_core B *C 1146.0500 351.0000 *D chip_io

*CAP
1 *49:3 0.0

*RES
1 *506:clock_core *507:clock_core 0.001
2 *507:clock_core *49:2 11.8026
3 *507:clock_core *49:3 3.02148
*END

*D_NET *50 0

*CONN
*I *506:const_one[0] O *C 806.1550 351.0625 *D caravel_core
*I *507:const_one[0] B *C 806.1550 351.0625 *D chip_io

*CAP
1 *50:3 0.0

*RES
1 *506:const_one[0] *507:const_one[0] 0.001
2 *507:const_one[0] *50:2 7.853
3 *507:const_one[0] *50:3 2.99787
*END

*D_NET *51 0

*CONN
*I *506:const_one[1] O *C 1631.1550 350.7800 *D caravel_core
*I *507:const_one[1] B *C 1631.1550 350.7800 *D chip_io

*CAP
1 *51:3 0.0

*RES
1 *506:const_one[1] *507:const_one[1] 0.001
2 *507:const_one[1] *51:2 7.68965
3 *507:const_one[1] *51:3 3.10457
*END

*D_NET *52 0

*CONN
*I *506:const_zero[0] O *C 2518.8600 350.9900 *D caravel_core
*I *507:const_zero[0] B *C 2518.8600 350.9900 *D chip_io

*CAP
1 *52:3 0.0

*RES
1 *506:const_zero[0] *507:const_zero[0] 0.001
2 *507:const_zero[0] *52:2 46.8923
3 *507:const_zero[0] *52:3 3.02525
*END

*D_NET *53 0

*CONN
*I *506:const_zero[1] O *C 2243.8600 350.9900 *D caravel_core
*I *507:const_zero[1] B *C 2243.8600 350.9900 *D chip_io

*CAP
1 *53:3 0.0

*RES
1 *506:const_zero[1] *507:const_zero[1] 0.001
2 *507:const_zero[1] *53:2 46.9525
3 *507:const_zero[1] *53:3 3.02525
*END

*D_NET *54 0

*CONN
*I *506:const_zero[2] O *C 1968.8600 350.9900 *D caravel_core
*I *507:const_zero[2] B *C 1968.8600 350.9900 *D chip_io

*CAP
1 *54:3 0.0

*RES
1 *506:const_zero[2] *507:const_zero[2] 0.001
2 *507:const_zero[2] *54:2 46.9538
3 *507:const_zero[2] *54:3 3.02525
*END

*D_NET *55 0

*CONN
*I *506:const_zero[3] O *C 1693.8600 351.0050 *D caravel_core
*I *507:const_zero[3] B *C 1693.8575 351.0050 *D chip_io

*CAP
1 *55:3 0.0

*RES
1 *506:const_zero[3] *507:const_zero[3] 0.001
2 *507:const_zero[3] *55:2 46.3707
3 *507:const_zero[3] *55:3 2.94216
*END

*D_NET *56 0

*CONN
*I *506:const_zero[4] O *C 1081.1550 350.9725 *D caravel_core
*I *507:const_zero[4] B *C 1081.1550 350.9725 *D chip_io

*CAP
1 *56:3 0.0

*RES
1 *506:const_zero[4] *507:const_zero[4] 0.001
2 *507:const_zero[4] *56:2 0.291761
3 *507:const_zero[4] *56:3 3.03186
*END

*D_NET *57 0

*CONN
*I *506:const_zero[5] O *C 810.5200 351.0625 *D caravel_core
*I *507:const_zero[5] B *C 810.5200 351.0625 *D chip_io

*CAP
1 *57:3 0.0

*RES
1 *506:const_zero[5] *507:const_zero[5] 0.001
2 *507:const_zero[5] *57:2 7.97386
3 *507:const_zero[5] *57:3 2.99787
*END

*D_NET *58 0

*CONN
*I *506:const_zero[6] O *C 2728.5500 350.9950 *D caravel_core
*I *507:gpio_schmitt_select B *C 2728.5500 350.9950 *D chip_io

*CAP
1 *58:3 0.0

*RES
1 *506:const_zero[6] *507:gpio_schmitt_select 0.001
2 *507:gpio_schmitt_select *58:2 8.47901
3 *507:gpio_schmitt_select *58:3 3.02336
*END

*D_NET *59 0

*CONN
*I *506:const_zero[7] O *C 2731.1550 350.9950 *D caravel_core
*I *507:gpio_pu_select B *C 2731.1550 350.9950 *D chip_io

*CAP
1 *59:3 0.0

*RES
1 *506:const_zero[7] *507:gpio_pu_select 0.001
2 *507:gpio_pu_select *59:2 7.77086
3 *507:gpio_pu_select *59:3 3.02336
*END

*D_NET *60 0

*CONN
*I *506:const_zero[8] O *C 2735.5200 350.9950 *D caravel_core
*I *507:gpio_pd_select B *C 2735.5200 350.9950 *D chip_io

*CAP
1 *60:3 0.0

*RES
1 *506:const_zero[8] *507:gpio_pd_select 0.001
2 *507:gpio_pd_select *60:2 7.89172
3 *507:gpio_pd_select *60:3 3.02336
*END

*D_NET *61 0

*CONN
*I *506:const_zero[9] O *C 2793.8600 350.9950 *D caravel_core
*I *507:gpio_slew_select B *C 2793.8600 350.9950 *D chip_io

*CAP
1 *61:3 0.0

*RES
1 *506:const_zero[9] *507:gpio_slew_select 0.001
2 *507:gpio_slew_select *61:2 32.4261
3 *507:gpio_slew_select *61:3 3.02336
*END

*D_NET *62 0

*CONN
*I *506:flash_clk_frame O *C 1969.5900 351.0000 *D caravel_core
*I *507:flash_clk_core B *C 1969.5900 351.0000 *D chip_io

*CAP
1 *62:3 0.0

*RES
1 *506:flash_clk_frame *507:flash_clk_core 0.001
2 *507:flash_clk_core *62:2 32.6848
3 *507:flash_clk_core *62:3 3.02148
*END

*D_NET *63 0

*CONN
*I *506:flash_clk_oe O *C 1970.3200 351.0000 *D caravel_core
*I *507:flash_clk_oe_core B *C 1970.3200 351.0000 *D chip_io

*CAP
1 *63:3 0.0

*RES
1 *506:flash_clk_oe *507:flash_clk_oe_core 0.001
2 *507:flash_clk_oe_core *63:2 31.9748
3 *507:flash_clk_oe_core *63:3 3.02148
*END

*D_NET *64 0

*CONN
*I *506:flash_csb_frame O *C 1694.5900 351.0000 *D caravel_core
*I *507:flash_csb_core B *C 1694.5900 351.0000 *D chip_io

*CAP
1 *64:3 0.0

*RES
1 *506:flash_csb_frame *507:flash_csb_core 0.001
2 *507:flash_csb_core *64:2 32.6848
3 *507:flash_csb_core *64:3 3.02148
*END

*D_NET *65 0

*CONN
*I *506:flash_csb_oe O *C 1695.3200 351.0000 *D caravel_core
*I *507:flash_csb_oe_core B *C 1695.3200 351.0000 *D chip_io

*CAP
1 *65:3 0.0

*RES
1 *506:flash_csb_oe *507:flash_csb_oe_core 0.001
2 *507:flash_csb_oe_core *65:2 31.9748
3 *507:flash_csb_oe_core *65:3 3.02148
*END

*D_NET *66 0

*CONN
*I *506:flash_io0_di I *C 2246.0450 351.0000
*I *507:flash_io0_di_core B *C 2246.0450 351.0000 *D chip_io

*CAP
1 *66:3 0.0

*RES
1 *506:flash_io0_di *507:flash_io0_di_core 0.001
2 *507:flash_io0_di_core *66:3 3.02148
3 *507:flash_io0_di_core *66:2 0.516618
*END

*D_NET *67 0

*CONN
*I *506:flash_io0_do O *C 2244.5900 351.0000 *D caravel_core
*I *507:flash_io0_do_core B *C 2244.5900 351.0000 *D chip_io

*CAP
1 *67:3 0.0

*RES
1 *506:flash_io0_do *507:flash_io0_do_core 0.001
2 *507:flash_io0_do_core *67:2 32.6848
3 *507:flash_io0_do_core *67:3 3.02148
*END

*D_NET *68 0

*CONN
*I *506:flash_io0_ie O *C 2186.5750 351.0000 *D caravel_core
*I *507:flash_io0_ie_core B *C 2186.5750 351.0000 *D chip_io

*CAP
1 *68:3 0.0

*RES
1 *506:flash_io0_ie *507:flash_io0_ie_core 0.001
2 *507:flash_io0_ie_core *68:2 6.07317
3 *507:flash_io0_ie_core *68:3 3.02148
*END

*D_NET *69 0

*CONN
*I *506:flash_io0_oe O *C 2245.3200 351.0000 *D caravel_core
*I *507:flash_io0_oe_core B *C 2245.3200 351.0000 *D chip_io

*CAP
1 *69:3 0.0

*RES
1 *506:flash_io0_oe *507:flash_io0_oe_core 0.001
2 *507:flash_io0_oe_core *69:2 31.9748
3 *507:flash_io0_oe_core *69:3 3.02148
*END

*D_NET *70 0

*CONN
*I *506:flash_io1_di I *C 2521.0500 351.0000
*I *507:flash_io1_di_core B *C 2521.0500 351.0000 *D chip_io

*CAP
1 *70:3 0.0

*RES
1 *506:flash_io1_di *507:flash_io1_di_core 0.001
2 *507:flash_io1_di_core *70:2 11.746
3 *507:flash_io1_di_core *70:3 3.02148
*END

*D_NET *71 0

*CONN
*I *506:flash_io1_do O *C 2519.5900 351.0000 *D caravel_core
*I *507:flash_io1_do_core B *C 2519.5900 351.0000 *D chip_io

*CAP
1 *71:3 0.0

*RES
1 *506:flash_io1_do *507:flash_io1_do_core 0.001
2 *507:flash_io1_do_core *71:2 32.6848
3 *507:flash_io1_do_core *71:3 3.02148
*END

*D_NET *72 0

*CONN
*I *506:flash_io1_ie O *C 2461.5750 351.0000 *D caravel_core
*I *507:flash_io1_ie_core B *C 2461.5750 351.0000 *D chip_io

*CAP
1 *72:3 0.0

*RES
1 *506:flash_io1_ie *507:flash_io1_ie_core 0.001
2 *507:flash_io1_ie_core *72:2 6.07317
3 *507:flash_io1_ie_core *72:3 3.02148
*END

*D_NET *73 0

*CONN
*I *506:flash_io1_oe O *C 2520.3200 351.0000 *D caravel_core
*I *507:flash_io1_oe_core B *C 2520.3200 351.0000 *D chip_io

*CAP
1 *73:3 0.0

*RES
1 *506:flash_io1_oe *507:flash_io1_oe_core 0.001
2 *507:flash_io1_oe_core *73:2 31.9748
3 *507:flash_io1_oe_core *73:3 3.02148
*END

*D_NET *74 0

*CONN
*I *506:gpio_drive_select_core[0] O *C 2732.3000 351.0000 *D caravel_core
*I *507:gpio_drive_select_core[0] B *C 2732.3000 351.0000 *D chip_io

*CAP
1 *74:3 0.0

*RES
1 *506:gpio_drive_select_core[0] *507:gpio_drive_select_core[0] 0.001
2 *507:gpio_drive_select_core[0] *74:2 32.6074
3 *507:gpio_drive_select_core[0] *74:3 3.02148
*END

*D_NET *75 0

*CONN
*I *506:gpio_drive_select_core[1] O *C 2733.0100 350.6237 *D caravel_core
*I *507:gpio_drive_select_core[1] B *C 2733.0100 350.7475 *D chip_io

*CAP
1 *75:3 0.0

*RES
1 *506:gpio_drive_select_core[1] *507:gpio_drive_select_core[1] 0.001