*SPEF "ieee 1481-1999"
*DESIGN "spare_logic_block"
*DATE "11:11:11 Fri 11 11, 1111"
*VENDOR "OpenRCX"
*PROGRAM "Parallel Extraction"
*VERSION "1.0"
*DESIGN_FLOW "NAME_SCOPE LOCAL" "PIN_CAP NONE"
*DIVIDER /
*DELIMITER :
*BUS_DELIMITER []
*T_UNIT 1 NS
*C_UNIT 1 PF
*R_UNIT 1 OHM
*L_UNIT 1 HENRY

*NAME_MAP
*3 spare_xfq[0]
*4 spare_xfq[1]
*5 spare_xi[0]
*6 spare_xi[1]
*7 spare_xi[2]
*8 spare_xi[3]
*9 spare_xib
*10 spare_xmx[0]
*11 spare_xmx[1]
*12 spare_xna[0]
*13 spare_xna[1]
*14 spare_xno[0]
*15 spare_xno[1]
*16 spare_xz[0]
*17 spare_xz[10]
*18 spare_xz[11]
*19 spare_xz[12]
*20 spare_xz[13]
*21 spare_xz[14]
*22 spare_xz[15]
*23 spare_xz[16]
*24 spare_xz[17]
*25 spare_xz[18]
*26 spare_xz[19]
*27 spare_xz[1]
*28 spare_xz[20]
*29 spare_xz[21]
*30 spare_xz[22]
*31 spare_xz[23]
*32 spare_xz[24]
*33 spare_xz[25]
*34 spare_xz[26]
*35 spare_xz[27]
*36 spare_xz[28]
*37 spare_xz[29]
*38 spare_xz[2]
*39 spare_xz[30]
*40 spare_xz[3]
*41 spare_xz[4]
*42 spare_xz[5]
*43 spare_xz[6]
*44 spare_xz[7]
*45 spare_xz[8]
*46 spare_xz[9]
*47 ANTENNA_spare_logic_biginv_I
*48 ANTENNA_spare_logic_flop\[0\]_CLK
*49 ANTENNA_spare_logic_flop\[0\]_RN
*50 ANTENNA_spare_logic_flop\[0\]_SETN
*51 ANTENNA_spare_logic_flop\[1\]_CLK
*52 ANTENNA_spare_logic_flop\[1\]_D
*53 ANTENNA_spare_logic_flop\[1\]_RN
*54 ANTENNA_spare_logic_flop\[1\]_SETN
*55 ANTENNA_spare_logic_inv\[3\]_I
*56 ANTENNA_spare_logic_mux\[1\]_I1
*57 ANTENNA_spare_logic_mux\[1\]_S
*58 ANTENNA_spare_logic_nand\[1\]_A2
*59 ANTENNA_spare_logic_nor\[0\]_A1
*60 ANTENNA_spare_logic_nor\[1\]_A1
*61 FILLER_0_104
*62 FILLER_0_107
*63 FILLER_0_12
*64 FILLER_0_2
*65 FILLER_0_20
*66 FILLER_0_24
*67 FILLER_0_29
*68 FILLER_0_33
*69 FILLER_0_37
*70 FILLER_0_42
*71 FILLER_0_48
*72 FILLER_0_52
*73 FILLER_0_54
*74 FILLER_0_59
*75 FILLER_0_6
*76 FILLER_0_63
*77 FILLER_0_69
*78 FILLER_0_72
*79 FILLER_10_10
*80 FILLER_10_101
*81 FILLER_10_105
*82 FILLER_10_108
*83 FILLER_10_110
*84 FILLER_10_15
*85 FILLER_10_2
*86 FILLER_10_31
*87 FILLER_10_37
*88 FILLER_10_53
*89 FILLER_10_57
*90 FILLER_10_63
*91 FILLER_10_95
*92 FILLER_11_110
*93 FILLER_11_14
*94 FILLER_11_2
*95 FILLER_11_20
*96 FILLER_11_36
*97 FILLER_11_4
*98 FILLER_11_44
*99 FILLER_11_46
*100 FILLER_11_49
*101 FILLER_11_57
*102 FILLER_11_65
*103 FILLER_11_69
*104 FILLER_11_73
*105 FILLER_11_93
*106 FILLER_12_104
*107 FILLER_12_107
*108 FILLER_12_12
*109 FILLER_12_2
*110 FILLER_12_28
*111 FILLER_12_32
*112 FILLER_12_34
*113 FILLER_12_37
*114 FILLER_12_53
*115 FILLER_12_6
*116 FILLER_12_61
*117 FILLER_12_69
*118 FILLER_12_72
*119 FILLER_12_88
*120 FILLER_12_96
*121 FILLER_1_100
*122 FILLER_1_104
*123 FILLER_1_108
*124 FILLER_1_110
*125 FILLER_1_2
*126 FILLER_1_45
*127 FILLER_1_49
*128 FILLER_1_56
*129 FILLER_1_67
*130 FILLER_1_73
*131 FILLER_1_78
*132 FILLER_1_84
*133 FILLER_2_100
*134 FILLER_2_104
*135 FILLER_2_108
*136 FILLER_2_110
*137 FILLER_2_19
*138 FILLER_2_2
*139 FILLER_2_25
*140 FILLER_2_29
*141 FILLER_2_33
*142 FILLER_2_37
*143 FILLER_2_40
*144 FILLER_2_46
*145 FILLER_2_54
*146 FILLER_2_58
*147 FILLER_2_6
*148 FILLER_2_8
*149 FILLER_3_105
*150 FILLER_3_109
*151 FILLER_3_12
*152 FILLER_3_16
*153 FILLER_3_2
*154 FILLER_3_22
*155 FILLER_3_38
*156 FILLER_3_46
*157 FILLER_3_49
*158 FILLER_3_59
*159 FILLER_3_6
*160 FILLER_3_67
*161 FILLER_3_73
*162 FILLER_3_81
*163 FILLER_3_89
*164 FILLER_3_97
*165 FILLER_4_101
*166 FILLER_4_105
*167 FILLER_4_108
*168 FILLER_4_110
*169 FILLER_4_2
*170 FILLER_4_34
*171 FILLER_4_37
*172 FILLER_5_105
*173 FILLER_5_109
*174 FILLER_5_2
*175 FILLER_5_34
*176 FILLER_5_50
*177 FILLER_5_57
*178 FILLER_5_65
*179 FILLER_5_69
*180 FILLER_5_73
*181 FILLER_6_105
*182 FILLER_6_108
*183 FILLER_6_110
*184 FILLER_6_2
*185 FILLER_6_34
*186 FILLER_6_37
*187 FILLER_6_43
*188 FILLER_6_71
*189 FILLER_6_81
*190 FILLER_6_97
*191 FILLER_7_107
*192 FILLER_7_2
*193 FILLER_7_34
*194 FILLER_7_38
*195 FILLER_7_44
*196 FILLER_7_50
*197 FILLER_7_56
*198 FILLER_7_62
*199 FILLER_7_68
*200 FILLER_7_70
*201 FILLER_7_73
*202 FILLER_7_79
*203 FILLER_7_91
*204 FILLER_8_101
*205 FILLER_8_105
*206 FILLER_8_108
*207 FILLER_8_110
*208 FILLER_8_12
*209 FILLER_8_2
*210 FILLER_8_28
*211 FILLER_8_32
*212 FILLER_8_34
*213 FILLER_8_37
*214 FILLER_8_45
*215 FILLER_8_48
*216 FILLER_8_6
*217 FILLER_8_65
*218 FILLER_8_69
*219 FILLER_8_85
*220 FILLER_8_93
*221 FILLER_9_105
*222 FILLER_9_109
*223 FILLER_9_2
*224 FILLER_9_66
*225 FILLER_9_70
*226 FILLER_9_73
*227 PHY_0
*228 PHY_1
*229 PHY_10
*230 PHY_11
*231 PHY_12
*232 PHY_13
*233 PHY_14
*234 PHY_15
*235 PHY_16
*236 PHY_17
*237 PHY_18
*238 PHY_19
*239 PHY_2
*240 PHY_20
*241 PHY_21
*242 PHY_22
*243 PHY_23
*244 PHY_24
*245 PHY_25
*246 PHY_3
*247 PHY_4
*248 PHY_5
*249 PHY_6
*250 PHY_7
*251 PHY_8
*252 PHY_9
*253 TAP_26
*254 TAP_27
*255 TAP_28
*256 TAP_29
*257 TAP_30
*258 TAP_31
*259 TAP_32
*260 TAP_33
*261 TAP_34
*262 TAP_35
*263 TAP_36
*264 TAP_37
*265 TAP_38
*266 TAP_39
*267 TAP_40
*268 TAP_41
*269 TAP_42
*270 TAP_43
*271 TAP_44
*272 TAP_45
*273 TAP_46
*274 TAP_47
*275 spare_logic_biginv
*276 spare_logic_const_one\[0\]
*277 spare_logic_const_one\[1\]
*278 spare_logic_const_one\[2\]
*279 spare_logic_const_one\[3\]
*280 spare_logic_const_zero\[0\]
*281 spare_logic_const_zero\[10\]
*282 spare_logic_const_zero\[11\]
*283 spare_logic_const_zero\[12\]
*284 spare_logic_const_zero\[13\]
*285 spare_logic_const_zero\[14\]
*286 spare_logic_const_zero\[15\]
*287 spare_logic_const_zero\[16\]
*288 spare_logic_const_zero\[17\]
*289 spare_logic_const_zero\[18\]
*290 spare_logic_const_zero\[19\]
*291 spare_logic_const_zero\[1\]
*292 spare_logic_const_zero\[20\]
*293 spare_logic_const_zero\[21\]
*294 spare_logic_const_zero\[22\]
*295 spare_logic_const_zero\[23\]
*296 spare_logic_const_zero\[24\]
*297 spare_logic_const_zero\[25\]
*298 spare_logic_const_zero\[26\]
*299 spare_logic_const_zero\[2\]
*300 spare_logic_const_zero\[3\]
*301 spare_logic_const_zero\[4\]
*302 spare_logic_const_zero\[5\]
*303 spare_logic_const_zero\[6\]
*304 spare_logic_const_zero\[7\]
*305 spare_logic_const_zero\[8\]
*306 spare_logic_const_zero\[9\]
*307 spare_logic_flop\[0\]
*308 spare_logic_flop\[1\]
*309 spare_logic_inv\[0\]
*310 spare_logic_inv\[1\]
*311 spare_logic_inv\[2\]
*312 spare_logic_inv\[3\]
*313 spare_logic_mux\[0\]
*314 spare_logic_mux\[1\]
*315 spare_logic_nand\[0\]
*316 spare_logic_nand\[1\]
*317 spare_logic_nor\[0\]
*318 spare_logic_nor\[1\]

*PORTS
spare_xfq[0] O
spare_xfq[1] O
spare_xi[0] O
spare_xi[1] O
spare_xi[2] O
spare_xi[3] O
spare_xib O
spare_xmx[0] O
spare_xmx[1] O
spare_xna[0] O
spare_xna[1] O
spare_xno[0] O
spare_xno[1] O
spare_xz[0] O
spare_xz[10] O
spare_xz[11] O
spare_xz[12] O
spare_xz[13] O
spare_xz[14] O
spare_xz[15] O
spare_xz[16] O
spare_xz[17] O
spare_xz[18] O
spare_xz[19] O
spare_xz[1] O
spare_xz[20] O
spare_xz[21] O
spare_xz[22] O
spare_xz[23] O
spare_xz[24] O
spare_xz[25] O
spare_xz[26] O
spare_xz[27] O
spare_xz[28] O
spare_xz[29] O
spare_xz[2] O
spare_xz[30] O
spare_xz[3] O
spare_xz[4] O
spare_xz[5] O
spare_xz[6] O
spare_xz[7] O
spare_xz[8] O
spare_xz[9] O

*D_NET *3 0.00535752
*CONN
*P spare_xfq[0] O
*I *307:Q O *D gf180mcu_fd_sc_mcu7t5v0__dffrsnq_2
*CAP
1 spare_xfq[0] 0.00164989
2 *307:Q 0.00164989
3 spare_xfq[0] spare_xz[11] 0
4 spare_xfq[0] spare_xz[16] 0
5 spare_xfq[0] spare_xz[21] 6.29676e-05
6 spare_xfq[0] spare_xz[22] 0
7 spare_xfq[0] spare_xz[26] 0
8 spare_xfq[0] spare_xz[8] 0.000807064
9 spare_xfq[0] *48:I 6.82145e-05
10 spare_xfq[0] *307:SETN 0.000749576
11 spare_xfq[0] *317:A1 4.3747e-05
12 spare_xfq[0] *317:A2 0
13 spare_xfq[0] *18:8 1.98375e-05
14 spare_xfq[0] *29:8 2.33182e-05
15 spare_xfq[0] *46:8 0.00020921
16 spare_xfq[0] *46:11 7.38057e-05
*RES
1 *307:Q spare_xfq[0] 31.364 
*END

*D_NET *4 0.00343438
*CONN
*P spare_xfq[1] O
*I *308:Q O *D gf180mcu_fd_sc_mcu7t5v0__dffrsnq_2
*CAP
1 spare_xfq[1] 0.000926428
2 *308:Q 0.000926428
3 spare_xfq[1] spare_xib 0.00010457
4 spare_xfq[1] spare_xz[25] 0.00104266
5 spare_xfq[1] *52:I 0.000406639
6 spare_xfq[1] *54:I 2.76612e-05
*RES
1 *308:Q spare_xfq[1] 21.56 
*END

*D_NET *5 0.00275389
*CONN
*P spare_xi[0] O
*I *309:ZN O *D gf180mcu_fd_sc_mcu7t5v0__inv_2
*CAP
1 spare_xi[0] 0.000907442
2 *309:ZN 0.000907442
3 spare_xi[0] spare_xi[3] 0.000210776
4 spare_xi[0] spare_xmx[1] 0.000553169
5 spare_xi[0] spare_xz[1] 0
6 spare_xi[0] spare_xz[3] 0
7 spare_xi[0] *55:I 0.000115197
8 spare_xi[0] *312:I 2.45177e-05
9 spare_xi[0] *40:9 3.53437e-05
*RES
1 *309:ZN spare_xi[0] 21.144 
*END

*D_NET *6 0.00581661
*CONN
*P spare_xi[1] O
*I *310:ZN O *D gf180mcu_fd_sc_mcu7t5v0__inv_2
*CAP
1 spare_xi[1] 0.00146713
2 *310:ZN 0.00146713
3 spare_xi[1] spare_xz[16] 6.71222e-05
4 spare_xi[1] spare_xz[22] 3.66016e-05
5 spare_xi[1] spare_xz[25] 4.17715e-05
6 spare_xi[1] spare_xz[26] 9.40075e-05
7 spare_xi[1] *50:I 1.62872e-05
8 spare_xi[1] *51:I 5.21042e-06
9 spare_xi[1] *307:RN 0.000427612
10 spare_xi[1] *30:27 0.000527596
11 spare_xi[1] *31:5 0.000569377
12 spare_xi[1] *31:18 0.000420055
13 spare_xi[1] *33:15 0.000676721
*RES
1 *310:ZN spare_xi[1] 26.24 
*END

*D_NET *7 0.00444932
*CONN
*P spare_xi[2] O
*I *311:ZN O *D gf180mcu_fd_sc_mcu7t5v0__inv_2
*CAP
1 spare_xi[2] 0.00209788
2 *311:ZN 0.00209788
3 spare_xi[2] spare_xz[25] 0
4 spare_xi[2] spare_xz[6] 0.000121446
5 spare_xi[2] spare_xz[8] 6.53152e-05
6 spare_xi[2] *49:I 5.14172e-05
7 spare_xi[2] *53:I 0
8 spare_xi[2] *45:9 1.5374e-05
9 spare_xi[2] *45:17 0
*RES
1 *311:ZN spare_xi[2] 23.508 
*END

*D_NET *8 0.00377747
*CONN
*P spare_xi[3] O
*I *312:ZN O *D gf180mcu_fd_sc_mcu7t5v0__inv_2
*CAP
1 spare_xi[3] 0.00128782
2 *312:ZN 0.00128782
3 spare_xi[3] spare_xmx[1] 1.07369e-05
4 spare_xi[3] spare_xna[0] 0.00015891
5 spare_xi[3] spare_xz[28] 0
6 spare_xi[3] spare_xz[5] 0.000571792
7 spare_xi[3] spare_xz[7] 7.8013e-05
8 spare_xi[3] *55:I 3.53306e-05
9 spare_xi[3] *315:A2 0.000136263
10 spare_xi[0] spare_xi[3] 0.000210776
*RES
1 *312:ZN spare_xi[3] 21.636 
*END

*D_NET *9 0.00728802
*CONN
*P spare_xib O
*I *275:ZN O *D gf180mcu_fd_sc_mcu7t5v0__inv_12
*CAP
1 spare_xib 0.00294304
2 *275:ZN 0.00294304
3 spare_xib spare_xz[10] 2.9345e-05
4 spare_xib spare_xz[14] 8.49947e-05
5 spare_xib spare_xz[23] 3.42514e-05
6 spare_xib spare_xz[29] 0.000422736
7 spare_xib spare_xz[9] 7.14042e-05
8 spare_xib *54:I 0.000548483
9 spare_xib *318:A1 4.78738e-05
10 spare_xib *17:16 5.82869e-05
11 spare_xfq[1] spare_xib 0.00010457
*RES
1 *275:ZN spare_xib 39.684 
*END

*D_NET *10 0.00510478
*CONN
*P spare_xmx[0] O
*I *313:Z O *D gf180mcu_fd_sc_mcu7t5v0__mux2_2
*CAP
1 spare_xmx[0] 0.00255239
2 *313:Z 0.00255239
*RES
1 *313:Z spare_xmx[0] 35.175 
*END

*D_NET *11 0.00770444
*CONN
*P spare_xmx[1] O
*I *314:Z O *D gf180mcu_fd_sc_mcu7t5v0__mux2_2
*CAP
1 spare_xmx[1] 0.00199194
2 *314:Z 0.00199194
3 spare_xmx[1] spare_xz[0] 0.00215943
4 spare_xmx[1] spare_xz[12] 5.10988e-05
5 spare_xmx[1] spare_xz[13] 0.000867234
6 spare_xmx[1] spare_xz[1] 7.88903e-05
7 spare_xmx[1] spare_xz[3] 0
8 spare_xmx[1] *22:8 0
9 spare_xi[0] spare_xmx[1] 0.000553169
10 spare_xi[3] spare_xmx[1] 1.07369e-05
*RES
1 *314:Z spare_xmx[1] 27.252 
*END

*D_NET *12 0.00234549
*CONN
*P spare_xna[0] O
*I *315:ZN O *D gf180mcu_fd_sc_mcu7t5v0__nand2_2
*CAP
1 spare_xna[0] 0.00068251
2 *315:ZN 0.00068251
3 spare_xna[0] spare_xz[21] 0.000753096
4 spare_xna[0] spare_xz[28] 6.84601e-05
5 spare_xi[3] spare_xna[0] 0.00015891
*RES
1 *315:ZN spare_xna[0] 21.768 
*END

*D_NET *13 0.00148058
*CONN
*P spare_xna[1] O
*I *316:ZN O *D gf180mcu_fd_sc_mcu7t5v0__nand2_2
*CAP
1 spare_xna[1] 0.000355491
2 *316:ZN 0.000355491
3 spare_xna[1] *316:A1 0.00015881
4 spare_xna[1] *45:9 0.000194542
5 spare_xna[1] *45:17 0.000416246
*RES
1 *316:ZN spare_xna[1] 8.088 
*END

*D_NET *14 0.000778207
*CONN
*P spare_xno[0] O
*I *317:ZN O *D gf180mcu_fd_sc_mcu7t5v0__nor2_2
*CAP
1 spare_xno[0] 0.000276365
2 *317:ZN 0.000276365
3 spare_xno[0] spare_xz[21] 3.59546e-05
4 spare_xno[0] spare_xz[26] 0.000189522
*RES
1 *317:ZN spare_xno[0] 11.964 
*END

*D_NET *15 0.00582915
*CONN
*P spare_xno[1] O
*I *318:ZN O *D gf180mcu_fd_sc_mcu7t5v0__nor2_2
*CAP
1 spare_xno[1] 0.00148048
2 *318:ZN 0.00148048
3 spare_xno[1] spare_xz[23] 0
4 spare_xno[1] spare_xz[24] 0.0018299
5 spare_xno[1] spare_xz[9] 0
6 spare_xno[1] *53:I 0.000406999
7 spare_xno[1] *60:I 0
8 spare_xno[1] *308:SETN 5.36845e-05
9 spare_xno[1] *32:11 0.000560798
10 spare_xno[1] *34:5 1.67986e-05
*RES
1 *318:ZN spare_xno[1] 17.24 
*END

*D_NET *16 0.00703572
*CONN
*P spare_xz[0] O
*I *309:I I *D gf180mcu_fd_sc_mcu7t5v0__inv_2
*I *280:ZN O *D gf180mcu_fd_sc_mcu7t5v0__tiel
*CAP
1 spare_xz[0] 0.00113244
2 *309:I 3.30057e-05
3 *280:ZN 0.0002672
4 *16:7 0.00143264
5 spare_xz[0] spare_xz[12] 1.34307e-05
6 spare_xz[0] spare_xz[15] 0
7 spare_xz[0] spare_xz[24] 0.000733048
8 spare_xz[0] spare_xz[3] 0.000852823
9 spare_xz[0] *22:8 0.000265536
10 *309:I spare_xz[1] 1.93284e-05
11 *16:7 spare_xz[1] 0.00012683
12 spare_xmx[1] spare_xz[0] 0.00215943
*RES
1 *280:ZN *16:7 6.58 
2 *16:7 spare_xz[0] 26.864 
3 *16:7 *309:I 4.812 
*END

*D_NET *17 0.0084531
*CONN
*P spare_xz[10] O
*I *318:A1 I *D gf180mcu_fd_sc_mcu7t5v0__nor2_2
*I *60:I I *D gf180mcu_fd_sc_mcu7t5v0__antenna
*I *281:ZN O *D gf180mcu_fd_sc_mcu7t5v0__tiel
*CAP
1 spare_xz[10] 0.0013204
2 *318:A1 0.000106065
3 *60:I 0.000167546
4 *281:ZN 2.46178e-05
5 *17:16 0.000368772
6 *17:7 0.00144018
7 spare_xz[10] spare_xz[14] 0.000289526
8 spare_xz[10] spare_xz[16] 0.000964422
9 spare_xz[10] spare_xz[18] 0.000855522
10 spare_xz[10] spare_xz[4] 0.00177323
11 spare_xz[10] *57:I 3.4699e-05
12 spare_xz[10] *314:I0 0.000164173
13 spare_xz[10] *23:8 0.000191231
14 spare_xz[10] *25:26 0.000121987
15 *60:I spare_xz[20] 4.96254e-05
16 *60:I spare_xz[24] 0
17 *318:A1 spare_xz[14] 0.000232515
18 *318:A1 spare_xz[20] 0
19 *318:A1 spare_xz[24] 3.8026e-06
20 *318:A1 *318:A2 2.97193e-06
21 *17:7 spare_xz[20] 0.000113035
22 *17:16 spare_xz[14] 9.32696e-05
23 spare_xib spare_xz[10] 2.9345e-05
24 spare_xib *318:A1 4.78738e-05
25 spare_xib *17:16 5.82869e-05
26 spare_xno[1] *60:I 0
*RES
1 *281:ZN *17:7 9.312 
2 *17:7 spare_xz[10] 16.692 
3 *17:7 *17:16 1.248 
4 *17:16 *60:I 10.144 
5 *17:16 *318:A1 10.248 
*END

*D_NET *18 0.0022258
*CONN
*P spare_xz[11] O
*I *317:A2 I *D gf180mcu_fd_sc_mcu7t5v0__nor2_2
*I *282:ZN O *D gf180mcu_fd_sc_mcu7t5v0__tiel
*CAP
1 spare_xz[11] 0.000689957
2 *317:A2 9.65929e-05
3 *282:ZN 0.000134705
4 *18:8 0.000921255
5 spare_xz[11] *307:D 9.05769e-05
6 spare_xz[11] *307:CLK 0
7 *317:A2 *307:CLK 0
8 *18:8 spare_xz[26] 1.10048e-05
9 *18:8 *317:A1 0.000261871
10 spare_xfq[0] spare_xz[11] 0
11 spare_xfq[0] *317:A2 0
12 spare_xfq[0] *18:8 1.98375e-05
*RES
1 *282:ZN *18:8 15.268 
2 *18:8 spare_xz[11] 4.836 
3 *18:8 *317:A2 5.228 
*END

*D_NET *19 0.00578293
*CONN
*P spare_xz[12] O
*I *318:A2 I *D gf180mcu_fd_sc_mcu7t5v0__nor2_2
*I *283:ZN O *D gf180mcu_fd_sc_mcu7t5v0__tiel
*CAP
1 spare_xz[12] 0.00185264
2 *318:A2 0.000219524
3 *283:ZN 0
4 *19:5 0.00207216
5 spare_xz[12] spare_xz[14] 7.13033e-05
6 spare_xz[12] spare_xz[17] 0
7 spare_xz[12] spare_xz[20] 0
8 spare_xz[12] spare_xz[24] 0
9 spare_xz[12] spare_xz[3] 0.000180504
10 spare_xz[12] *313:I0 0.000455595
11 spare_xz[12] *313:I1 9.01987e-05
12 spare_xz[12] *313:S 2.46672e-06
13 spare_xz[12] *20:7 0.000276038
14 spare_xz[12] *22:8 4.87247e-05
15 *318:A2 spare_xz[14] 3.61851e-05
16 *318:A2 spare_xz[20] 0
17 *318:A2 spare_xz[24] 0.000410088
18 spare_xmx[1] spare_xz[12] 5.10988e-05
19 spare_xz[0] spare_xz[12] 1.34307e-05
20 *318:A1 *318:A2 2.97193e-06
*RES
1 *283:ZN *19:5 9 
2 *19:5 *318:A2 10.872 
3 *19:5 spare_xz[12] 27.592 
*END

*D_NET *20 0.00482365
*CONN
*P spare_xz[13] O
*I *313:I0 I *D gf180mcu_fd_sc_mcu7t5v0__mux2_2
*I *284:ZN O *D gf180mcu_fd_sc_mcu7t5v0__tiel
*CAP
1 spare_xz[13] 0.00138596
2 *313:I0 0.000127004
3 *284:ZN 9.63341e-05
4 *20:7 0.0016093
5 *313:I0 *313:I1 0
6 *313:I0 *313:S 6.19021e-06
7 spare_xmx[1] spare_xz[13] 0.000867234
8 spare_xz[12] *313:I0 0.000455595
9 spare_xz[12] *20:7 0.000276038
*RES
1 *284:ZN *20:7 5.54 
2 *20:7 spare_xz[13] 19.972 
3 *20:7 *313:I0 5.852 
*END

*D_NET *21 0.00412382
*CONN
*P spare_xz[14] O
*I *314:I0 I *D gf180mcu_fd_sc_mcu7t5v0__mux2_2
*I *285:ZN O *D gf180mcu_fd_sc_mcu7t5v0__tiel
*CAP
1 spare_xz[14] 0.00129101
2 *314:I0 0.000154057
3 *285:ZN 0
4 *21:5 0.00144507
5 spare_xz[14] spare_xz[20] 0
6 spare_xz[14] *57:I 3.71625e-05
7 *314:I0 spare_xz[1] 0.000122098
8 *314:I0 *57:I 0.000102461
9 spare_xib spare_xz[14] 8.49947e-05
10 spare_xz[10] spare_xz[14] 0.000289526
11 spare_xz[10] *314:I0 0.000164173
12 spare_xz[12] spare_xz[14] 7.13033e-05
13 *318:A1 spare_xz[14] 0.000232515
14 *318:A2 spare_xz[14] 3.61851e-05
15 *17:16 spare_xz[14] 9.32696e-05
*RES
1 *285:ZN *21:5 9 
2 *21:5 *314:I0 10.872 
3 *21:5 spare_xz[14] 11.284 
*END

*D_NET *22 0.00369303
*CONN
*P spare_xz[15] O
*I *313:I1 I *D gf180mcu_fd_sc_mcu7t5v0__mux2_2
*I *286:ZN O *D gf180mcu_fd_sc_mcu7t5v0__tiel
*CAP
1 spare_xz[15] 0.000456117
2 *313:I1 0.000278687
3 *286:ZN 0.000186006
4 *22:8 0.00092081
5 spare_xz[15] spare_xz[17] 0.000261703
6 spare_xz[15] spare_xz[24] 0
7 spare_xz[15] *313:S 5.94386e-06
8 *313:I1 spare_xz[3] 0.000465909
9 *313:I1 *313:S 0.000112495
10 *22:8 spare_xz[3] 0.000600898
11 spare_xmx[1] *22:8 0
12 spare_xz[0] spare_xz[15] 0
13 spare_xz[0] *22:8 0.000265536
14 spare_xz[12] *313:I1 9.01987e-05
15 spare_xz[12] *22:8 4.87247e-05
16 *313:I0 *313:I1 0
*RES
1 *286:ZN *22:8 11.288 
2 *22:8 spare_xz[15] 8.504 
3 *22:8 *313:I1 11.496 
*END

*D_NET *23 0.00896554
*CONN
*P spare_xz[16] O
*I *314:I1 I *D gf180mcu_fd_sc_mcu7t5v0__mux2_2
*I *56:I I *D gf180mcu_fd_sc_mcu7t5v0__antenna
*I *287:ZN O *D gf180mcu_fd_sc_mcu7t5v0__tiel
*CAP
1 spare_xz[16] 0.00220496
2 *314:I1 0.000282327
3 *56:I 0
4 *287:ZN 9.45218e-05
5 *23:23 0.000500713
6 *23:8 0.00251787
7 spare_xz[16] spare_xz[19] 0.000307193
8 spare_xz[16] spare_xz[22] 3.13801e-05
9 spare_xz[16] spare_xz[8] 0.00116833
10 spare_xz[16] *48:I 3.96666e-05
11 spare_xz[16] *275:I 1.52123e-05
12 spare_xz[16] *307:RN 0.000394695
13 spare_xz[16] *307:SETN 1.96746e-05
14 spare_xz[16] *31:18 8.22032e-06
15 spare_xz[16] *41:5 0
16 *314:I1 spare_xz[18] 0.000101076
17 *314:I1 *25:26 3.56516e-05
18 *23:8 *275:I 6.41376e-06
19 *23:23 *41:5 1.48596e-05
20 spare_xfq[0] spare_xz[16] 0
21 spare_xi[1] spare_xz[16] 6.71222e-05
22 spare_xz[10] spare_xz[16] 0.000964422
23 spare_xz[10] *23:8 0.000191231
*RES
1 *287:ZN *23:8 10.04 
2 *23:8 spare_xz[16] 29.436 
3 *23:8 *23:23 5.852 
4 *23:23 *56:I 4.5 
5 *23:23 *314:I1 15.996 
*END

*D_NET *24 0.00234804
*CONN
*P spare_xz[17] O
*I *313:S I *D gf180mcu_fd_sc_mcu7t5v0__mux2_2
*I *288:ZN O *D gf180mcu_fd_sc_mcu7t5v0__tiel
*CAP
1 spare_xz[17] 0.000769473
2 *313:S 0.00021015
3 *288:ZN 0
4 *24:4 0.000979623
5 spare_xz[12] spare_xz[17] 0
6 spare_xz[12] *313:S 2.46672e-06
7 spare_xz[15] spare_xz[17] 0.000261703
8 spare_xz[15] *313:S 5.94386e-06
9 *313:I0 *313:S 6.19021e-06
10 *313:I1 *313:S 0.000112495
*RES
1 *288:ZN *24:4 4.5 
2 *24:4 spare_xz[17] 10.896 
3 *24:4 *313:S 5.956 
*END

*D_NET *25 0.0093248
*CONN
*P spare_xz[18] O
*I *314:S I *D gf180mcu_fd_sc_mcu7t5v0__mux2_2
*I *57:I I *D gf180mcu_fd_sc_mcu7t5v0__antenna
*I *289:ZN O *D gf180mcu_fd_sc_mcu7t5v0__tiel
*CAP
1 spare_xz[18] 0.00247016
2 *314:S 4.88818e-05
3 *57:I 0.000273847
4 *289:ZN 0
5 *25:26 0.000543111
6 *25:5 0.00269054
7 spare_xz[18] spare_xz[21] 3.54618e-05
8 spare_xz[18] spare_xz[30] 4.95613e-05
9 spare_xz[18] spare_xz[4] 0.00177674
10 spare_xz[18] *315:A1 5.36712e-05
11 spare_xz[18] *42:7 4.33315e-05
12 *314:S spare_xz[1] 1.87762e-05
13 *25:26 spare_xz[1] 3.21568e-05
14 spare_xz[10] spare_xz[18] 0.000855522
15 spare_xz[10] *57:I 3.4699e-05
16 spare_xz[10] *25:26 0.000121987
17 spare_xz[14] *57:I 3.71625e-05
18 *314:I0 *57:I 0.000102461
19 *314:I1 spare_xz[18] 0.000101076
20 *314:I1 *25:26 3.56516e-05
*RES
1 *289:ZN *25:5 9 
2 *25:5 spare_xz[18] 27.744 
3 *25:5 *25:26 6.164 
4 *25:26 *57:I 15.684 
5 *25:26 *314:S 4.812 
*END

*D_NET *26 0.00212954
*CONN
*P spare_xz[19] O
*I *307:D I *D gf180mcu_fd_sc_mcu7t5v0__dffrsnq_2
*I *290:ZN O *D gf180mcu_fd_sc_mcu7t5v0__tiel
*CAP
1 spare_xz[19] 0.000599157
2 *307:D 0.000261107
3 *290:ZN 0
4 *26:4 0.000860263
5 spare_xz[19] spare_xz[22] 0
6 *307:D spare_xz[26] 0
7 *307:D *307:CLK 1.12401e-05
8 spare_xz[11] *307:D 9.05769e-05
9 spare_xz[16] spare_xz[19] 0.000307193
*RES
1 *290:ZN *26:4 4.5 
2 *26:4 spare_xz[19] 14.98 
3 *26:4 *307:D 6.476 
*END

*D_NET *27 0.00472502
*CONN
*P spare_xz[1] O
*I *310:I I *D gf180mcu_fd_sc_mcu7t5v0__inv_2
*I *291:ZN O *D gf180mcu_fd_sc_mcu7t5v0__tiel
*CAP
1 spare_xz[1] 0.00149706
2 *310:I 0.000653198
3 *291:ZN 0
4 *27:4 0.00215026
5 spare_xz[1] *312:I 2.45177e-05
6 spare_xz[1] *40:9 1.9013e-06
7 spare_xi[0] spare_xz[1] 0
8 spare_xmx[1] spare_xz[1] 7.88903e-05
9 *309:I spare_xz[1] 1.93284e-05
10 *314:I0 spare_xz[1] 0.000122098
11 *314:S spare_xz[1] 1.87762e-05
12 *16:7 spare_xz[1] 0.00012683
13 *25:26 spare_xz[1] 3.21568e-05
*RES
1 *291:ZN *27:4 4.5 
2 *27:4 *310:I 8.868 
3 *27:4 spare_xz[1] 11.284 
*END

*D_NET *28 0.0112547
*CONN
*P spare_xz[20] O
*I *52:I I *D gf180mcu_fd_sc_mcu7t5v0__antenna
*I *308:D I *D gf180mcu_fd_sc_mcu7t5v0__dffrsnq_2
*I *292:ZN O *D gf180mcu_fd_sc_mcu7t5v0__tiel
*CAP
1 spare_xz[20] 0.00273064
2 *52:I 0.000223168
3 *308:D 8.09961e-05
4 *292:ZN 0.000209642
5 *28:7 0.000304164
6 *28:5 0.00294028
7 spare_xz[20] spare_xz[9] 0.000133504
8 *52:I spare_xz[23] 3.42554e-05
9 *52:I spare_xz[25] 0.000490209
10 *52:I spare_xz[26] 0.000608946
11 *52:I *54:I 0.00102146
12 *52:I *308:SETN 0.000250529
13 *52:I *34:10 0.000534949
14 *308:D spare_xz[25] 0.000815535
15 *308:D spare_xz[26] 0.000307169
16 *28:5 *34:5 0
17 spare_xfq[1] *52:I 0.000406639
18 spare_xz[12] spare_xz[20] 0
19 spare_xz[14] spare_xz[20] 0
20 *60:I spare_xz[20] 4.96254e-05
21 *318:A1 spare_xz[20] 0
22 *318:A2 spare_xz[20] 0
23 *17:7 spare_xz[20] 0.000113035
*RES
1 *292:ZN *28:5 5.644 
2 *28:5 *28:7 4.5 
3 *28:7 *308:D 11.184 
4 *28:7 *52:I 15.032 
5 *28:5 spare_xz[20] 23.168 
*END

*D_NET *29 0.00948309
*CONN
*P spare_xz[21] O
*I *48:I I *D gf180mcu_fd_sc_mcu7t5v0__antenna
*I *307:CLK I *D gf180mcu_fd_sc_mcu7t5v0__dffrsnq_2
*I *293:ZN O *D gf180mcu_fd_sc_mcu7t5v0__tiel
*CAP
1 spare_xz[21] 0.0024802
2 *48:I 0.000708999
3 *307:CLK 0.000377928
4 *293:ZN 9.36955e-05
5 *29:8 0.00292632
6 *29:7 0.000870886
7 spare_xz[21] spare_xz[26] 9.34237e-05
8 *48:I spare_xz[26] 0.000574652
9 *48:I spare_xz[9] 0
10 *48:I *31:18 0.000112495
11 *48:I *46:8 0
12 *307:CLK spare_xz[26] 0.000118471
13 *29:8 spare_xz[26] 9.60984e-05
14 spare_xfq[0] spare_xz[21] 6.29676e-05
15 spare_xfq[0] *48:I 6.82145e-05
16 spare_xfq[0] *29:8 2.33182e-05
17 spare_xna[0] spare_xz[21] 0.000753096
18 spare_xno[0] spare_xz[21] 3.59546e-05
19 spare_xz[11] *307:CLK 0
20 spare_xz[16] *48:I 3.96666e-05
21 spare_xz[18] spare_xz[21] 3.54618e-05
22 *307:D *307:CLK 1.12401e-05
23 *317:A2 *307:CLK 0
*RES
1 *293:ZN *29:7 9.728 
2 *29:7 *29:8 0.936 
3 *29:8 spare_xz[21] 28.992 
4 *29:8 *307:CLK 11.6 
5 *29:7 *48:I 15.864 
*END

*D_NET *30 0.00666458
*CONN
*P spare_xz[22] O
*I *51:I I *D gf180mcu_fd_sc_mcu7t5v0__antenna
*I *308:CLK I *D gf180mcu_fd_sc_mcu7t5v0__dffrsnq_2
*I *294:ZN O *D gf180mcu_fd_sc_mcu7t5v0__tiel
*CAP
1 spare_xz[22] 0.00159749
2 *51:I 0.000334584
3 *308:CLK 0
4 *294:ZN 0
5 *30:27 0.000965439
6 *30:4 0.00222834
7 spare_xz[22] spare_xz[27] 3.83217e-05
8 spare_xz[22] *307:SETN 0
9 *30:27 spare_xz[25] 0.000237144
10 *30:27 spare_xz[26] 0.000444898
11 *30:27 spare_xz[2] 0.000128287
12 *30:27 *31:5 3.79883e-05
13 *30:27 *31:18 1.64433e-05
14 *30:27 *38:5 3.48574e-05
15 spare_xfq[0] spare_xz[22] 0
16 spare_xi[1] spare_xz[22] 3.66016e-05
17 spare_xi[1] *51:I 5.21042e-06
18 spare_xi[1] *30:27 0.000527596
19 spare_xz[16] spare_xz[22] 3.13801e-05
20 spare_xz[19] spare_xz[22] 0
*RES
1 *294:ZN *30:4 4.5 
2 *30:4 spare_xz[22] 26.24 
3 *30:4 *30:27 15.448 
4 *30:27 *308:CLK 4.5 
5 *30:27 *51:I 6.476 
*END

*D_NET *31 0.00942489
*CONN
*P spare_xz[23] O
*I *50:I I *D gf180mcu_fd_sc_mcu7t5v0__antenna
*I *307:SETN I *D gf180mcu_fd_sc_mcu7t5v0__dffrsnq_2
*I *295:ZN O *D gf180mcu_fd_sc_mcu7t5v0__tiel
*CAP
1 spare_xz[23] 0.00226879
2 *50:I 3.87978e-05
3 *307:SETN 0.000152457
4 *295:ZN 0.000130946
5 *31:18 0.00289091
6 *31:5 0.000866734
7 spare_xz[23] spare_xz[26] 0.000686539
8 spare_xz[23] spare_xz[9] 0
9 spare_xz[23] *53:I 0
10 spare_xz[23] *54:I 0.000167749
11 spare_xz[23] *308:SETN 3.65379e-05
12 spare_xz[23] *32:8 2.05772e-05
13 spare_xz[23] *32:11 0
14 *31:18 spare_xz[26] 0.000146232
15 *31:18 spare_xz[9] 0
16 spare_xfq[0] *307:SETN 0.000749576
17 spare_xi[1] *50:I 1.62872e-05
18 spare_xi[1] *31:5 0.000569377
19 spare_xi[1] *31:18 0.000420055
20 spare_xib spare_xz[23] 3.42514e-05
21 spare_xno[1] spare_xz[23] 0
22 spare_xz[16] *307:SETN 1.96746e-05
23 spare_xz[16] *31:18 8.22032e-06
24 spare_xz[22] *307:SETN 0
25 *48:I *31:18 0.000112495
26 *52:I spare_xz[23] 3.42554e-05
27 *30:27 *31:5 3.79883e-05
28 *30:27 *31:18 1.64433e-05
*RES
1 *295:ZN *31:5 6.268 
2 *31:5 *307:SETN 15.476 
3 *31:5 *31:18 8.868 
4 *31:18 *50:I 9.312 
5 *31:18 spare_xz[23] 21.504 
*END

*D_NET *32 0.0114703
*CONN
*P spare_xz[24] O
*I *54:I I *D gf180mcu_fd_sc_mcu7t5v0__antenna
*I *308:SETN I *D gf180mcu_fd_sc_mcu7t5v0__dffrsnq_2
*I *296:ZN O *D gf180mcu_fd_sc_mcu7t5v0__tiel
*CAP
1 spare_xz[24] 0.00204203
2 *54:I 0.00041835
3 *308:SETN 0.000172998
4 *296:ZN 9.96147e-05
5 *32:11 0.000752429
6 *32:8 0.00230272
7 *308:SETN spare_xz[26] 1.48596e-05
8 *308:SETN *34:5 2.97193e-06
9 spare_xfq[1] *54:I 2.76612e-05
10 spare_xib *54:I 0.000548483
11 spare_xno[1] spare_xz[24] 0.0018299
12 spare_xno[1] *308:SETN 5.36845e-05
13 spare_xno[1] *32:11 0.000560798
14 spare_xz[0] spare_xz[24] 0.000733048
15 spare_xz[12] spare_xz[24] 0
16 spare_xz[15] spare_xz[24] 0
17 spare_xz[23] *54:I 0.000167749
18 spare_xz[23] *308:SETN 3.65379e-05
19 spare_xz[23] *32:8 2.05772e-05
20 spare_xz[23] *32:11 0
21 *52:I *54:I 0.00102146
22 *52:I *308:SETN 0.000250529
23 *60:I spare_xz[24] 0
24 *318:A1 spare_xz[24] 3.8026e-06
25 *318:A2 spare_xz[24] 0.000410088
*RES
1 *296:ZN *32:8 14.02 
2 *32:8 *32:11 6.06 
3 *32:11 *308:SETN 10.248 
4 *32:11 *54:I 13.888 
5 *32:8 spare_xz[24] 17.108 
*END

*D_NET *33 0.00973641
*CONN
*P spare_xz[25] O
*I *49:I I *D gf180mcu_fd_sc_mcu7t5v0__antenna
*I *307:RN I *D gf180mcu_fd_sc_mcu7t5v0__dffrsnq_2
*I *297:ZN O *D gf180mcu_fd_sc_mcu7t5v0__tiel
*CAP
1 spare_xz[25] 0.00117002
2 *49:I 0.000289793
3 *307:RN 0.000300929
4 *297:ZN 0
5 *33:15 0.00153279
6 *33:5 0.000373901
7 spare_xz[25] spare_xz[26] 8.30488e-05
8 spare_xz[25] spare_xz[8] 0.000130832
9 spare_xz[25] *53:I 0.000232976
10 spare_xz[25] *34:10 0.00054434
11 *49:I spare_xz[2] 0.000189049
12 *49:I spare_xz[8] 0
13 *49:I *38:5 0.000337199
14 *49:I *45:9 0
15 *49:I *45:17 0
16 *307:RN spare_xz[26] 6.1778e-05
17 *307:RN spare_xz[8] 0.000150365
18 *33:15 spare_xz[8] 0.000161628
19 spare_xfq[1] spare_xz[25] 0.00104266
20 spare_xi[1] spare_xz[25] 4.17715e-05
21 spare_xi[1] *307:RN 0.000427612
22 spare_xi[1] *33:15 0.000676721
23 spare_xi[2] spare_xz[25] 0
24 spare_xi[2] *49:I 5.14172e-05
25 spare_xz[16] *307:RN 0.000394695
26 *52:I spare_xz[25] 0.000490209
27 *308:D spare_xz[25] 0.000815535
28 *30:27 spare_xz[25] 0.000237144
*RES
1 *297:ZN *33:5 9 
2 *33:5 *307:RN 12.12 
3 *33:5 *33:15 1.768 
4 *33:15 *49:I 11.808 
5 *33:15 spare_xz[25] 13.988 
*END

*D_NET *34 0.0116887
*CONN
*P spare_xz[26] O
*I *308:RN I *D gf180mcu_fd_sc_mcu7t5v0__dffrsnq_2
*I *53:I I *D gf180mcu_fd_sc_mcu7t5v0__antenna
*I *298:ZN O *D gf180mcu_fd_sc_mcu7t5v0__tiel
*CAP
1 spare_xz[26] 0.00212477
2 *308:RN 0
3 *53:I 0.00060278
4 *298:ZN 0.000211099
5 *34:10 0.00067417
6 *34:5 0.00240726
7 spare_xz[26] spare_xz[8] 0
8 spare_xz[26] *317:A1 0.000398981
9 spare_xfq[0] spare_xz[26] 0
10 spare_xi[1] spare_xz[26] 9.40075e-05
11 spare_xi[2] *53:I 0
12 spare_xno[0] spare_xz[26] 0.000189522
13 spare_xno[1] *53:I 0.000406999
14 spare_xno[1] *34:5 1.67986e-05
15 spare_xz[21] spare_xz[26] 9.34237e-05
16 spare_xz[23] spare_xz[26] 0.000686539
17 spare_xz[23] *53:I 0
18 spare_xz[25] spare_xz[26] 8.30488e-05
19 spare_xz[25] *53:I 0.000232976
20 spare_xz[25] *34:10 0.00054434
21 *48:I spare_xz[26] 0.000574652
22 *52:I spare_xz[26] 0.000608946
23 *52:I *34:10 0.000534949
24 *307:D spare_xz[26] 0
25 *307:RN spare_xz[26] 6.1778e-05
26 *307:CLK spare_xz[26] 0.000118471
27 *308:D spare_xz[26] 0.000307169
28 *308:SETN spare_xz[26] 1.48596e-05
29 *308:SETN *34:5 2.97193e-06
30 *18:8 spare_xz[26] 1.10048e-05
31 *28:5 *34:5 0
32 *29:8 spare_xz[26] 9.60984e-05
33 *30:27 spare_xz[26] 0.000444898
34 *31:18 spare_xz[26] 0.000146232
*RES
1 *298:ZN *34:5 5.644 
2 *34:5 *34:10 10.56 
3 *34:10 *53:I 18.284 
4 *34:10 *308:RN 4.5 
5 *34:5 spare_xz[26] 31.932 
*END

*D_NET *35 0.000728545
*CONN
*P spare_xz[27] O
*I *276:Z O *D gf180mcu_fd_sc_mcu7t5v0__tieh
*CAP
1 spare_xz[27] 0.000345112
2 *276:Z 0.000345112
3 spare_xz[22] spare_xz[27] 3.83217e-05
*RES
1 *276:Z spare_xz[27] 7.048 
*END

*D_NET *36 0.000647174
*CONN
*P spare_xz[28] O
*I *277:Z O *D gf180mcu_fd_sc_mcu7t5v0__tieh
*CAP
1 spare_xz[28] 0.000289357
2 *277:Z 0.000289357
3 spare_xi[3] spare_xz[28] 0
4 spare_xna[0] spare_xz[28] 6.84601e-05
*RES
1 *277:Z spare_xz[28] 11.756 
*END

*D_NET *37 0.00156671
*CONN
*P spare_xz[29] O
*I *278:Z O *D gf180mcu_fd_sc_mcu7t5v0__tieh
*CAP
1 spare_xz[29] 0.000571987
2 *278:Z 0.000571987
3 spare_xib spare_xz[29] 0.000422736
*RES
1 *278:Z spare_xz[29] 13.108 
*END

*D_NET *38 0.00181267
*CONN
*P spare_xz[2] O
*I *311:I I *D gf180mcu_fd_sc_mcu7t5v0__inv_2
*I *299:ZN O *D gf180mcu_fd_sc_mcu7t5v0__tiel
*CAP
1 spare_xz[2] 0.000442902
2 *311:I 0
3 *299:ZN 0.000118739
4 *38:5 0.00056164
5 *49:I spare_xz[2] 0.000189049
6 *49:I *38:5 0.000337199
7 *30:27 spare_xz[2] 0.000128287
8 *30:27 *38:5 3.48574e-05
*RES
1 *299:ZN *38:5 5.644 
2 *38:5 spare_xz[2] 4.108 
3 *38:5 *311:I 4.5 
*END

*D_NET *39 0.000945854
*CONN
*P spare_xz[30] O
*I *279:Z O *D gf180mcu_fd_sc_mcu7t5v0__tieh
*CAP
1 spare_xz[30] 0.000448146
2 *279:Z 0.000448146
3 spare_xz[18] spare_xz[30] 4.95613e-05
*RES
1 *279:Z spare_xz[30] 12.484 
*END

*D_NET *40 0.00727566
*CONN
*P spare_xz[3] O
*I *55:I I *D gf180mcu_fd_sc_mcu7t5v0__antenna
*I *312:I I *D gf180mcu_fd_sc_mcu7t5v0__inv_2