* NGSPICE file created from caravel.ext - technology: gf180mcuC

* Black-box entry subcircuit for gpio_control_block abstract view
.subckt gpio_control_block VDD VSS gpio_defaults[0] gpio_defaults[1] gpio_defaults[2]
+ gpio_defaults[3] gpio_defaults[4] gpio_defaults[5] gpio_defaults[6] gpio_defaults[7]
+ gpio_defaults[8] gpio_defaults[9] mgmt_gpio_in mgmt_gpio_oeb mgmt_gpio_out one pad_gpio_drive_sel[0]
+ pad_gpio_drive_sel[1] pad_gpio_in pad_gpio_inen pad_gpio_out pad_gpio_outen pad_gpio_pulldown_sel
+ pad_gpio_pullup_sel pad_gpio_schmitt_sel pad_gpio_slew_sel resetn resetn_out serial_clock
+ serial_clock_out serial_data_in serial_data_out serial_load serial_load_out user_gpio_in
+ user_gpio_oeb user_gpio_out zero
.ends

* Black-box entry subcircuit for gpio_defaults_block abstract view
.subckt gpio_defaults_block gpio_defaults[0] gpio_defaults[1] gpio_defaults[2] gpio_defaults[3]
+ gpio_defaults[4] gpio_defaults[5] gpio_defaults[6] gpio_defaults[7] gpio_defaults[8]
+ gpio_defaults[9] VDD VSS
.ends

* Black-box entry subcircuit for digital_pll abstract view
.subckt digital_pll VDD VSS clockp[0] clockp[1] dco div[0] div[1] div[2] div[3] div[4]
+ enable ext_trim[0] ext_trim[10] ext_trim[11] ext_trim[12] ext_trim[13] ext_trim[14]
+ ext_trim[15] ext_trim[16] ext_trim[17] ext_trim[18] ext_trim[19] ext_trim[1] ext_trim[20]
+ ext_trim[21] ext_trim[22] ext_trim[23] ext_trim[24] ext_trim[25] ext_trim[2] ext_trim[3]
+ ext_trim[4] ext_trim[5] ext_trim[6] ext_trim[7] ext_trim[8] ext_trim[9] osc resetb
.ends

* Black-box entry subcircuit for GF_NI_FILL10 abstract view
.subckt GF_NI_FILL10 DVDD DVSS VDD VSS
.ends

* Black-box entry subcircuit for GF_NI_IN_S abstract view
.subckt GF_NI_IN_S DVDD DVSS PAD PD PU VDD VSS Y
.ends

* Black-box entry subcircuit for GF_NI_DVSS abstract view
.subckt GF_NI_DVSS DVDD DVSS VDD
.ends

* Black-box entry subcircuit for GF_NI_DVDD abstract view
.subckt GF_NI_DVDD DVDD DVSS VSS
.ends

* Black-box entry subcircuit for GF_NI_FILL5 abstract view
.subckt GF_NI_FILL5 DVDD DVSS VDD VSS
.ends

* Black-box entry subcircuit for GF_NI_BI_T abstract view
.subckt GF_NI_BI_T A CS DVDD DVSS IE OE PAD PD PDRV0 PDRV1 PU SL VDD VSS Y
.ends

* Black-box entry subcircuit for GF_NI_IN_C abstract view
.subckt GF_NI_IN_C DVDD DVSS PAD PD PU VDD VSS Y
.ends

* Black-box entry subcircuit for GF_NI_COR abstract view
.subckt GF_NI_COR DVDD DVSS VDD VSS
.ends

.subckt chip_io clock clock_core flash_clk flash_clk_core flash_clk_oe_core flash_csb
+ flash_csb_core flash_csb_oe_core flash_io0 flash_io0_di_core flash_io0_do_core flash_io0_ie_core
+ flash_io0_oe_core flash_io1 flash_io1_di_core flash_io1_do_core flash_io1_ie_core
+ flash_io1_oe_core gpio gpio_drive_select_core[0] gpio_drive_select_core[1] gpio_in_core
+ gpio_inen_core gpio_out_core gpio_outen_core gpio_pd_select gpio_pu_select gpio_schmitt_select
+ gpio_slew_select mprj_io[0] mprj_io[10] mprj_io[11] mprj_io[12] mprj_io[13] mprj_io[14]
+ mprj_io[15] mprj_io[16] mprj_io[17] mprj_io[18] mprj_io[19] mprj_io[1] mprj_io[20]
+ mprj_io[21] mprj_io[22] mprj_io[23] mprj_io[24] mprj_io[25] mprj_io[26] mprj_io[27]
+ mprj_io[28] mprj_io[29] mprj_io[2] mprj_io[30] mprj_io[31] mprj_io[32] mprj_io[33]
+ mprj_io[34] mprj_io[35] mprj_io[36] mprj_io[37] mprj_io[3] mprj_io[4] mprj_io[5]
+ mprj_io[6] mprj_io[7] mprj_io[8] mprj_io[9] mprj_io_drive_sel[0] mprj_io_drive_sel[10]
+ mprj_io_drive_sel[11] mprj_io_drive_sel[12] mprj_io_drive_sel[13] mprj_io_drive_sel[14]
+ mprj_io_drive_sel[15] mprj_io_drive_sel[16] mprj_io_drive_sel[17] mprj_io_drive_sel[18]
+ mprj_io_drive_sel[19] mprj_io_drive_sel[1] mprj_io_drive_sel[20] mprj_io_drive_sel[21]
+ mprj_io_drive_sel[22] mprj_io_drive_sel[23] mprj_io_drive_sel[24] mprj_io_drive_sel[25]
+ mprj_io_drive_sel[26] mprj_io_drive_sel[27] mprj_io_drive_sel[28] mprj_io_drive_sel[29]
+ mprj_io_drive_sel[2] mprj_io_drive_sel[30] mprj_io_drive_sel[31] mprj_io_drive_sel[32]
+ mprj_io_drive_sel[33] mprj_io_drive_sel[34] mprj_io_drive_sel[35] mprj_io_drive_sel[36]
+ mprj_io_drive_sel[37] mprj_io_drive_sel[38] mprj_io_drive_sel[39] mprj_io_drive_sel[3]
+ mprj_io_drive_sel[40] mprj_io_drive_sel[41] mprj_io_drive_sel[42] mprj_io_drive_sel[43]
+ mprj_io_drive_sel[44] mprj_io_drive_sel[45] mprj_io_drive_sel[46] mprj_io_drive_sel[47]
+ mprj_io_drive_sel[48] mprj_io_drive_sel[49] mprj_io_drive_sel[4] mprj_io_drive_sel[51]
+ mprj_io_drive_sel[525] mprj_io_drive_sel[52] mprj_io_drive_sel[53] mprj_io_drive_sel[54]
+ mprj_io_drive_sel[55] mprj_io_drive_sel[56] mprj_io_drive_sel[57] mprj_io_drive_sel[58]
+ mprj_io_drive_sel[59] mprj_io_drive_sel[5] mprj_io_drive_sel[61] mprj_io_drive_sel[62]
+ mprj_io_drive_sel[63] mprj_io_drive_sel[64] mprj_io_drive_sel[65] mprj_io_drive_sel[66]
+ mprj_io_drive_sel[67] mprj_io_drive_sel[68] mprj_io_drive_sel[69] mprj_io_drive_sel[6]
+ mprj_io_drive_sel[70] mprj_io_drive_sel[71] mprj_io_drive_sel[72] mprj_io_drive_sel[73]
+ mprj_io_drive_sel[74] mprj_io_drive_sel[75] mprj_io_drive_sel[7] mprj_io_drive_sel[8]
+ mprj_io_drive_sel[9] mprj_io_in[0] mprj_io_in[10] mprj_io_in[11] mprj_io_in[12]
+ mprj_io_in[13] mprj_io_in[14] mprj_io_in[15] mprj_io_in[16] mprj_io_in[17] mprj_io_in[18]
+ mprj_io_in[19] mprj_io_in[1] mprj_io_in[20] mprj_io_in[21] mprj_io_in[22] mprj_io_in[23]
+ mprj_io_in[24] mprj_io_in[25] mprj_io_in[26] mprj_io_in[27] mprj_io_in[28] mprj_io_in[29]
+ mprj_io_in[2] mprj_io_in[30] mprj_io_in[31] mprj_io_in[32] mprj_io_in[33] mprj_io_in[34]
+ mprj_io_in[35] mprj_io_in[36] mprj_io_in[37] mprj_io_in[3] mprj_io_in[4] mprj_io_in[5]
+ mprj_io_in[6] mprj_io_in[7] mprj_io_in[8] mprj_io_in[9] mprj_io_inen[0] mprj_io_inen[10]
+ mprj_io_inen[11] mprj_io_inen[12] mprj_io_inen[13] mprj_io_inen[14] mprj_io_inen[15]
+ mprj_io_inen[16] mprj_io_inen[17] mprj_io_inen[18] mprj_io_inen[19] mprj_io_inen[1]
+ mprj_io_inen[20] mprj_io_inen[21] mprj_io_inen[22] mprj_io_inen[23] mprj_io_inen[24]
+ mprj_io_inen[25] mprj_io_inen[26] mprj_io_inen[27] mprj_io_inen[28] mprj_io_inen[29]
+ mprj_io_inen[2] mprj_io_inen[30] mprj_io_inen[31] mprj_io_inen[32] mprj_io_inen[33]
+ mprj_io_inen[34] mprj_io_inen[35] mprj_io_inen[36] mprj_io_inen[37] mprj_io_inen[3]
+ mprj_io_inen[4] mprj_io_inen[5] mprj_io_inen[6] mprj_io_inen[7] mprj_io_inen[8]
+ mprj_io_inen[9] mprj_io_out[0] mprj_io_out[10] mprj_io_out[11] mprj_io_out[12] mprj_io_out[13]
+ mprj_io_out[14] mprj_io_out[15] mprj_io_out[16] mprj_io_out[17] mprj_io_out[18]
+ mprj_io_out[19] mprj_io_out[1] mprj_io_out[20] mprj_io_out[21] mprj_io_out[22] mprj_io_out[23]
+ mprj_io_out[24] mprj_io_out[25] mprj_io_out[26] mprj_io_out[27] mprj_io_out[28]
+ mprj_io_out[29] mprj_io_out[2] mprj_io_out[30] mprj_io_out[31] mprj_io_out[32] mprj_io_out[33]
+ mprj_io_out[34] mprj_io_out[35] mprj_io_out[36] mprj_io_out[37] mprj_io_out[3] mprj_io_out[4]
+ mprj_io_out[5] mprj_io_out[6] mprj_io_out[7] mprj_io_out[8] mprj_io_out[9] mprj_io_outen[0]
+ mprj_io_outen[10] mprj_io_outen[11] mprj_io_outen[12] mprj_io_outen[13] mprj_io_outen[14]
+ mprj_io_outen[15] mprj_io_outen[16] mprj_io_outen[17] mprj_io_outen[18] mprj_io_outen[19]
+ mprj_io_outen[1] mprj_io_outen[20] mprj_io_outen[21] mprj_io_outen[22] mprj_io_outen[23]
+ mprj_io_outen[24] mprj_io_outen[25] mprj_io_outen[26] mprj_io_outen[27] mprj_io_outen[28]
+ mprj_io_outen[29] mprj_io_outen[2] mprj_io_outen[30] mprj_io_outen[31] mprj_io_outen[32]
+ mprj_io_outen[33] mprj_io_outen[34] mprj_io_outen[35] mprj_io_outen[36] mprj_io_outen[37]
+ mprj_io_outen[3] mprj_io_outen[4] mprj_io_outen[5] mprj_io_outen[6] mprj_io_outen[7]
+ mprj_io_outen[8] mprj_io_outen[9] mprj_io_pd_select[0] mprj_io_pd_select[10] mprj_io_pd_select[11]
+ mprj_io_pd_select[12] mprj_io_pd_select[13] mprj_io_pd_select[14] mprj_io_pd_select[15]
+ mprj_io_pd_select[16] mprj_io_pd_select[17] mprj_io_pd_select[18] mprj_io_pd_select[19]
+ mprj_io_pd_select[1] mprj_io_pd_select[20] mprj_io_pd_select[21] mprj_io_pd_select[22]
+ mprj_io_pd_select[23] mprj_io_pd_select[24] mprj_io_pd_select[25] mprj_io_pd_select[26]
+ mprj_io_pd_select[27] mprj_io_pd_select[28] mprj_io_pd_select[29] mprj_io_pd_select[2]
+ mprj_io_pd_select[30] mprj_io_pd_select[31] mprj_io_pd_select[32] mprj_io_pd_select[33]
+ mprj_io_pd_select[34] mprj_io_pd_select[35] mprj_io_pd_select[36] mprj_io_pd_select[37]
+ mprj_io_pd_select[3] mprj_io_pd_select[4] mprj_io_pd_select[5] mprj_io_pd_select[6]
+ mprj_io_pd_select[7] mprj_io_pd_select[8] mprj_io_pd_select[9] mprj_io_pu_select[0]
+ mprj_io_pu_select[10] mprj_io_pu_select[11] mprj_io_pu_select[12] mprj_io_pu_select[13]
+ mprj_io_pu_select[14] mprj_io_pu_select[15] mprj_io_pu_select[16] mprj_io_pu_select[17]
+ mprj_io_pu_select[18] mprj_io_pu_select[19] mprj_io_pu_select[1] mprj_io_pu_select[20]
+ mprj_io_pu_select[21] mprj_io_pu_select[22] mprj_io_pu_select[23] mprj_io_pu_select[24]
+ mprj_io_pu_select[25] mprj_io_pu_select[26] mprj_io_pu_select[27] mprj_io_pu_select[28]
+ mprj_io_pu_select[29] mprj_io_pu_select[2] mprj_io_pu_select[30] mprj_io_pu_select[31]
+ mprj_io_pu_select[32] mprj_io_pu_select[33] mprj_io_pu_select[34] mprj_io_pu_select[35]
+ mprj_io_pu_select[36] mprj_io_pu_select[37] mprj_io_pu_select[3] mprj_io_pu_select[4]
+ mprj_io_pu_select[5] mprj_io_pu_select[6] mprj_io_pu_select[7] mprj_io_pu_select[8]
+ mprj_io_pu_select[9] mprj_io_schmitt_select[0] mprj_io_schmitt_select[10] mprj_io_schmitt_select[11]
+ mprj_io_schmitt_select[12] mprj_io_schmitt_select[13] mprj_io_schmitt_select[14]
+ mprj_io_schmitt_select[15] mprj_io_schmitt_select[16] mprj_io_schmitt_select[17]
+ mprj_io_schmitt_select[18] mprj_io_schmitt_select[19] mprj_io_schmitt_select[1]
+ mprj_io_schmitt_select[20] mprj_io_schmitt_select[21] mprj_io_schmitt_select[22]
+ mprj_io_schmitt_select[23] mprj_io_schmitt_select[24] mprj_io_schmitt_select[25]
+ mprj_io_schmitt_select[26] mprj_io_schmitt_select[27] mprj_io_schmitt_select[28]
+ mprj_io_schmitt_select[29] mprj_io_schmitt_select[2] mprj_io_schmitt_select[30]
+ mprj_io_schmitt_select[31] mprj_io_schmitt_select[32] mprj_io_schmitt_select[33]
+ mprj_io_schmitt_select[34] mprj_io_schmitt_select[35] mprj_io_schmitt_select[36]
+ mprj_io_schmitt_select[37] mprj_io_schmitt_select[3] mprj_io_schmitt_select[4] mprj_io_schmitt_select[5]
+ mprj_io_schmitt_select[6] mprj_io_schmitt_select[7] mprj_io_schmitt_select[8] mprj_io_schmitt_select[9]
+ mprj_io_slew_select[0] mprj_io_slew_select[10] mprj_io_slew_select[11] mprj_io_slew_select[12]
+ mprj_io_slew_select[13] mprj_io_slew_select[14] mprj_io_slew_select[15] mprj_io_slew_select[16]
+ mprj_io_slew_select[17] mprj_io_slew_select[18] mprj_io_slew_select[19] mprj_io_slew_select[1]
+ mprj_io_slew_select[20] mprj_io_slew_select[21] mprj_io_slew_select[22] mprj_io_slew_select[23]
+ mprj_io_slew_select[24] mprj_io_slew_select[25] mprj_io_slew_select[26] mprj_io_slew_select[27]
+ mprj_io_slew_select[28] mprj_io_slew_select[29] mprj_io_slew_select[2] mprj_io_slew_select[30]
+ mprj_io_slew_select[31] mprj_io_slew_select[32] mprj_io_slew_select[33] mprj_io_slew_select[34]
+ mprj_io_slew_select[35] mprj_io_slew_select[36] mprj_io_slew_select[37] mprj_io_slew_select[3]
+ mprj_io_slew_select[4] mprj_io_slew_select[5] mprj_io_slew_select[6] mprj_io_slew_select[7]
+ mprj_io_slew_select[8] mprj_io_slew_select[9] resetb resetb_core vdd vss GF_NI_COR_3/VSS
+ GF_NI_COR_3/VDD
XGF_NI_FILL10_513 GF_NI_COR_3/VDD GF_NI_COR_3/VSS GF_NI_COR_3/VDD GF_NI_COR_3/VSS
+ GF_NI_FILL10
XGF_NI_FILL10_524 GF_NI_COR_3/VDD GF_NI_COR_3/VSS GF_NI_COR_3/VDD GF_NI_COR_3/VSS
+ GF_NI_FILL10
XGF_NI_FILL10_535 GF_NI_COR_3/VDD GF_NI_COR_3/VSS GF_NI_COR_3/VDD GF_NI_COR_3/VSS
+ GF_NI_FILL10
XGF_NI_FILL10_546 GF_NI_COR_3/VDD GF_NI_COR_3/VSS GF_NI_COR_3/VDD GF_NI_COR_3/VSS
+ GF_NI_FILL10
XGF_NI_FILL10_557 GF_NI_COR_3/VDD GF_NI_COR_3/VSS GF_NI_COR_3/VDD GF_NI_COR_3/VSS
+ GF_NI_FILL10
XGF_NI_FILL10_568 GF_NI_COR_3/VDD GF_NI_COR_3/VSS GF_NI_COR_3/VDD GF_NI_COR_3/VSS
+ GF_NI_FILL10
XGF_NI_FILL10_579 GF_NI_COR_3/VDD GF_NI_COR_3/VSS GF_NI_COR_3/VDD GF_NI_COR_3/VSS
+ GF_NI_FILL10
XGF_NI_FILL10_502 GF_NI_COR_3/VDD GF_NI_COR_3/VSS GF_NI_COR_3/VDD GF_NI_COR_3/VSS
+ GF_NI_FILL10
XGF_NI_FILL10_94 GF_NI_COR_3/VDD GF_NI_COR_3/VSS GF_NI_COR_3/VDD GF_NI_COR_3/VSS GF_NI_FILL10
XGF_NI_FILL10_83 GF_NI_COR_3/VDD GF_NI_COR_3/VSS GF_NI_COR_3/VDD GF_NI_COR_3/VSS GF_NI_FILL10
XGF_NI_FILL10_72 GF_NI_COR_3/VDD GF_NI_COR_3/VSS GF_NI_COR_3/VDD GF_NI_COR_3/VSS GF_NI_FILL10
XGF_NI_FILL10_61 GF_NI_COR_3/VDD GF_NI_COR_3/VSS GF_NI_COR_3/VDD GF_NI_COR_3/VSS GF_NI_FILL10
XGF_NI_FILL10_50 GF_NI_COR_3/VDD GF_NI_COR_3/VSS GF_NI_COR_3/VDD GF_NI_COR_3/VSS GF_NI_FILL10
XGF_NI_FILL10_398 GF_NI_COR_3/VDD GF_NI_COR_3/VSS GF_NI_COR_3/VDD GF_NI_COR_3/VSS
+ GF_NI_FILL10
XGF_NI_FILL10_387 GF_NI_COR_3/VDD GF_NI_COR_3/VSS GF_NI_COR_3/VDD GF_NI_COR_3/VSS
+ GF_NI_FILL10
XGF_NI_FILL10_376 GF_NI_COR_3/VDD GF_NI_COR_3/VSS GF_NI_COR_3/VDD GF_NI_COR_3/VSS
+ GF_NI_FILL10
XGF_NI_FILL10_365 GF_NI_COR_3/VDD GF_NI_COR_3/VSS GF_NI_COR_3/VDD GF_NI_COR_3/VSS
+ GF_NI_FILL10
XGF_NI_FILL10_354 GF_NI_COR_3/VDD GF_NI_COR_3/VSS GF_NI_COR_3/VDD GF_NI_COR_3/VSS
+ GF_NI_FILL10
XGF_NI_FILL10_343 GF_NI_COR_3/VDD GF_NI_COR_3/VSS GF_NI_COR_3/VDD GF_NI_COR_3/VSS
+ GF_NI_FILL10
XGF_NI_FILL10_332 GF_NI_COR_3/VDD GF_NI_COR_3/VSS GF_NI_COR_3/VDD GF_NI_COR_3/VSS
+ GF_NI_FILL10
XGF_NI_FILL10_321 GF_NI_COR_3/VDD GF_NI_COR_3/VSS GF_NI_COR_3/VDD GF_NI_COR_3/VSS
+ GF_NI_FILL10
XGF_NI_FILL10_310 GF_NI_COR_3/VDD GF_NI_COR_3/VSS GF_NI_COR_3/VDD GF_NI_COR_3/VSS
+ GF_NI_FILL10
XGF_NI_FILL10_140 GF_NI_COR_3/VDD GF_NI_COR_3/VSS GF_NI_COR_3/VDD GF_NI_COR_3/VSS
+ GF_NI_FILL10
XGF_NI_FILL10_151 GF_NI_COR_3/VDD GF_NI_COR_3/VSS GF_NI_COR_3/VDD GF_NI_COR_3/VSS
+ GF_NI_FILL10
XGF_NI_FILL10_162 GF_NI_COR_3/VDD GF_NI_COR_3/VSS GF_NI_COR_3/VDD GF_NI_COR_3/VSS
+ GF_NI_FILL10
XGF_NI_FILL10_173 GF_NI_COR_3/VDD GF_NI_COR_3/VSS GF_NI_COR_3/VDD GF_NI_COR_3/VSS
+ GF_NI_FILL10
XGF_NI_FILL10_184 GF_NI_COR_3/VDD GF_NI_COR_3/VSS GF_NI_COR_3/VDD GF_NI_COR_3/VSS
+ GF_NI_FILL10
XGF_NI_FILL10_195 GF_NI_COR_3/VDD GF_NI_COR_3/VSS GF_NI_COR_3/VDD GF_NI_COR_3/VSS
+ GF_NI_FILL10
XGF_NI_FILL10_909 GF_NI_COR_3/VDD GF_NI_COR_3/VSS GF_NI_COR_3/VDD GF_NI_COR_3/VSS
+ GF_NI_FILL10
XGF_NI_FILL10_706 GF_NI_COR_3/VDD GF_NI_COR_3/VSS GF_NI_COR_3/VDD GF_NI_COR_3/VSS
+ GF_NI_FILL10
XGF_NI_FILL10_717 GF_NI_COR_3/VDD GF_NI_COR_3/VSS GF_NI_COR_3/VDD GF_NI_COR_3/VSS
+ GF_NI_FILL10
XGF_NI_FILL10_728 GF_NI_COR_3/VDD GF_NI_COR_3/VSS GF_NI_COR_3/VDD GF_NI_COR_3/VSS
+ GF_NI_FILL10
XGF_NI_FILL10_739 GF_NI_COR_3/VDD GF_NI_COR_3/VSS GF_NI_COR_3/VDD GF_NI_COR_3/VSS
+ GF_NI_FILL10
XGF_NI_FILL10_514 GF_NI_COR_3/VDD GF_NI_COR_3/VSS GF_NI_COR_3/VDD GF_NI_COR_3/VSS
+ GF_NI_FILL10
XGF_NI_FILL10_525 GF_NI_COR_3/VDD GF_NI_COR_3/VSS GF_NI_COR_3/VDD GF_NI_COR_3/VSS
+ GF_NI_FILL10
XGF_NI_FILL10_536 GF_NI_COR_3/VDD GF_NI_COR_3/VSS GF_NI_COR_3/VDD GF_NI_COR_3/VSS
+ GF_NI_FILL10
XGF_NI_FILL10_547 GF_NI_COR_3/VDD GF_NI_COR_3/VSS GF_NI_COR_3/VDD GF_NI_COR_3/VSS
+ GF_NI_FILL10
XGF_NI_FILL10_558 GF_NI_COR_3/VDD GF_NI_COR_3/VSS GF_NI_COR_3/VDD GF_NI_COR_3/VSS
+ GF_NI_FILL10
XGF_NI_FILL10_569 GF_NI_COR_3/VDD GF_NI_COR_3/VSS GF_NI_COR_3/VDD GF_NI_COR_3/VSS
+ GF_NI_FILL10
XGF_NI_FILL10_503 GF_NI_COR_3/VDD GF_NI_COR_3/VSS GF_NI_COR_3/VDD GF_NI_COR_3/VSS
+ GF_NI_FILL10
XGF_NI_FILL10_95 GF_NI_COR_3/VDD GF_NI_COR_3/VSS GF_NI_COR_3/VDD GF_NI_COR_3/VSS GF_NI_FILL10
XGF_NI_FILL10_84 GF_NI_COR_3/VDD GF_NI_COR_3/VSS GF_NI_COR_3/VDD GF_NI_COR_3/VSS GF_NI_FILL10
XGF_NI_FILL10_73 GF_NI_COR_3/VDD GF_NI_COR_3/VSS GF_NI_COR_3/VDD GF_NI_COR_3/VSS GF_NI_FILL10
XGF_NI_FILL10_62 GF_NI_COR_3/VDD GF_NI_COR_3/VSS GF_NI_COR_3/VDD GF_NI_COR_3/VSS GF_NI_FILL10
XGF_NI_FILL10_51 GF_NI_COR_3/VDD GF_NI_COR_3/VSS GF_NI_COR_3/VDD GF_NI_COR_3/VSS GF_NI_FILL10
XGF_NI_FILL10_40 GF_NI_COR_3/VDD GF_NI_COR_3/VSS GF_NI_COR_3/VDD GF_NI_COR_3/VSS GF_NI_FILL10
XGF_NI_FILL10_399 GF_NI_COR_3/VDD GF_NI_COR_3/VSS GF_NI_COR_3/VDD GF_NI_COR_3/VSS
+ GF_NI_FILL10
XGF_NI_FILL10_388 GF_NI_COR_3/VDD GF_NI_COR_3/VSS GF_NI_COR_3/VDD GF_NI_COR_3/VSS
+ GF_NI_FILL10
XGF_NI_FILL10_377 GF_NI_COR_3/VDD GF_NI_COR_3/VSS GF_NI_COR_3/VDD GF_NI_COR_3/VSS
+ GF_NI_FILL10
XGF_NI_FILL10_366 GF_NI_COR_3/VDD GF_NI_COR_3/VSS GF_NI_COR_3/VDD GF_NI_COR_3/VSS
+ GF_NI_FILL10
XGF_NI_FILL10_355 GF_NI_COR_3/VDD GF_NI_COR_3/VSS GF_NI_COR_3/VDD GF_NI_COR_3/VSS
+ GF_NI_FILL10
XGF_NI_FILL10_344 GF_NI_COR_3/VDD GF_NI_COR_3/VSS GF_NI_COR_3/VDD GF_NI_COR_3/VSS
+ GF_NI_FILL10
XGF_NI_FILL10_333 GF_NI_COR_3/VDD GF_NI_COR_3/VSS GF_NI_COR_3/VDD GF_NI_COR_3/VSS
+ GF_NI_FILL10
XGF_NI_FILL10_322 GF_NI_COR_3/VDD GF_NI_COR_3/VSS GF_NI_COR_3/VDD GF_NI_COR_3/VSS
+ GF_NI_FILL10
XGF_NI_FILL10_311 GF_NI_COR_3/VDD GF_NI_COR_3/VSS GF_NI_COR_3/VDD GF_NI_COR_3/VSS
+ GF_NI_FILL10
XGF_NI_FILL10_300 GF_NI_COR_3/VDD GF_NI_COR_3/VSS GF_NI_COR_3/VDD GF_NI_COR_3/VSS
+ GF_NI_FILL10
XGF_NI_FILL10_130 GF_NI_COR_3/VDD GF_NI_COR_3/VSS GF_NI_COR_3/VDD GF_NI_COR_3/VSS
+ GF_NI_FILL10
XGF_NI_FILL10_141 GF_NI_COR_3/VDD GF_NI_COR_3/VSS GF_NI_COR_3/VDD GF_NI_COR_3/VSS
+ GF_NI_FILL10
XGF_NI_FILL10_152 GF_NI_COR_3/VDD GF_NI_COR_3/VSS GF_NI_COR_3/VDD GF_NI_COR_3/VSS
+ GF_NI_FILL10
XGF_NI_FILL10_163 GF_NI_COR_3/VDD GF_NI_COR_3/VSS GF_NI_COR_3/VDD GF_NI_COR_3/VSS
+ GF_NI_FILL10
XGF_NI_FILL10_174 GF_NI_COR_3/VDD GF_NI_COR_3/VSS GF_NI_COR_3/VDD GF_NI_COR_3/VSS
+ GF_NI_FILL10
XGF_NI_FILL10_185 GF_NI_COR_3/VDD GF_NI_COR_3/VSS GF_NI_COR_3/VDD GF_NI_COR_3/VSS
+ GF_NI_FILL10
XGF_NI_FILL10_196 GF_NI_COR_3/VDD GF_NI_COR_3/VSS GF_NI_COR_3/VDD GF_NI_COR_3/VSS
+ GF_NI_FILL10
XGF_NI_FILL10_707 GF_NI_COR_3/VDD GF_NI_COR_3/VSS GF_NI_COR_3/VDD GF_NI_COR_3/VSS
+ GF_NI_FILL10
XGF_NI_FILL10_718 GF_NI_COR_3/VDD GF_NI_COR_3/VSS GF_NI_COR_3/VDD GF_NI_COR_3/VSS
+ GF_NI_FILL10
XGF_NI_FILL10_729 GF_NI_COR_3/VDD GF_NI_COR_3/VSS GF_NI_COR_3/VDD GF_NI_COR_3/VSS
+ GF_NI_FILL10
XGF_NI_FILL10_515 GF_NI_COR_3/VDD GF_NI_COR_3/VSS GF_NI_COR_3/VDD GF_NI_COR_3/VSS
+ GF_NI_FILL10
XGF_NI_FILL10_526 GF_NI_COR_3/VDD GF_NI_COR_3/VSS GF_NI_COR_3/VDD GF_NI_COR_3/VSS
+ GF_NI_FILL10
XGF_NI_FILL10_537 GF_NI_COR_3/VDD GF_NI_COR_3/VSS GF_NI_COR_3/VDD GF_NI_COR_3/VSS
+ GF_NI_FILL10
XGF_NI_FILL10_504 GF_NI_COR_3/VDD GF_NI_COR_3/VSS GF_NI_COR_3/VDD GF_NI_COR_3/VSS
+ GF_NI_FILL10
XGF_NI_FILL10_548 GF_NI_COR_3/VDD GF_NI_COR_3/VSS GF_NI_COR_3/VDD GF_NI_COR_3/VSS
+ GF_NI_FILL10
XGF_NI_FILL10_559 GF_NI_COR_3/VDD GF_NI_COR_3/VSS GF_NI_COR_3/VDD GF_NI_COR_3/VSS
+ GF_NI_FILL10
XGF_NI_FILL10_96 GF_NI_COR_3/VDD GF_NI_COR_3/VSS GF_NI_COR_3/VDD GF_NI_COR_3/VSS GF_NI_FILL10
XGF_NI_FILL10_85 GF_NI_COR_3/VDD GF_NI_COR_3/VSS GF_NI_COR_3/VDD GF_NI_COR_3/VSS GF_NI_FILL10
XGF_NI_FILL10_74 GF_NI_COR_3/VDD GF_NI_COR_3/VSS GF_NI_COR_3/VDD GF_NI_COR_3/VSS GF_NI_FILL10
XGF_NI_FILL10_63 GF_NI_COR_3/VDD GF_NI_COR_3/VSS GF_NI_COR_3/VDD GF_NI_COR_3/VSS GF_NI_FILL10
XGF_NI_FILL10_52 GF_NI_COR_3/VDD GF_NI_COR_3/VSS GF_NI_COR_3/VDD GF_NI_COR_3/VSS GF_NI_FILL10
XGF_NI_FILL10_41 GF_NI_COR_3/VDD GF_NI_COR_3/VSS GF_NI_COR_3/VDD GF_NI_COR_3/VSS GF_NI_FILL10
XGF_NI_FILL10_30 GF_NI_COR_3/VDD GF_NI_COR_3/VSS GF_NI_COR_3/VDD GF_NI_COR_3/VSS GF_NI_FILL10
XGF_NI_FILL10_389 GF_NI_COR_3/VDD GF_NI_COR_3/VSS GF_NI_COR_3/VDD GF_NI_COR_3/VSS
+ GF_NI_FILL10
XGF_NI_FILL10_378 GF_NI_COR_3/VDD GF_NI_COR_3/VSS GF_NI_COR_3/VDD GF_NI_COR_3/VSS
+ GF_NI_FILL10
XGF_NI_FILL10_367 GF_NI_COR_3/VDD GF_NI_COR_3/VSS GF_NI_COR_3/VDD GF_NI_COR_3/VSS
+ GF_NI_FILL10
XGF_NI_FILL10_356 GF_NI_COR_3/VDD GF_NI_COR_3/VSS GF_NI_COR_3/VDD GF_NI_COR_3/VSS
+ GF_NI_FILL10
XGF_NI_FILL10_345 GF_NI_COR_3/VDD GF_NI_COR_3/VSS GF_NI_COR_3/VDD GF_NI_COR_3/VSS
+ GF_NI_FILL10
XGF_NI_FILL10_334 GF_NI_COR_3/VDD GF_NI_COR_3/VSS GF_NI_COR_3/VDD GF_NI_COR_3/VSS
+ GF_NI_FILL10
XGF_NI_FILL10_323 GF_NI_COR_3/VDD GF_NI_COR_3/VSS GF_NI_COR_3/VDD GF_NI_COR_3/VSS
+ GF_NI_FILL10
XGF_NI_FILL10_312 GF_NI_COR_3/VDD GF_NI_COR_3/VSS GF_NI_COR_3/VDD GF_NI_COR_3/VSS
+ GF_NI_FILL10
XGF_NI_FILL10_301 GF_NI_COR_3/VDD GF_NI_COR_3/VSS GF_NI_COR_3/VDD GF_NI_COR_3/VSS
+ GF_NI_FILL10
XGF_NI_FILL10_890 GF_NI_COR_3/VDD GF_NI_COR_3/VSS GF_NI_COR_3/VDD GF_NI_COR_3/VSS
+ GF_NI_FILL10
XGF_NI_FILL10_120 GF_NI_COR_3/VDD GF_NI_COR_3/VSS GF_NI_COR_3/VDD GF_NI_COR_3/VSS
+ GF_NI_FILL10
XGF_NI_FILL10_131 GF_NI_COR_3/VDD GF_NI_COR_3/VSS GF_NI_COR_3/VDD GF_NI_COR_3/VSS
+ GF_NI_FILL10
XGF_NI_FILL10_142 GF_NI_COR_3/VDD GF_NI_COR_3/VSS GF_NI_COR_3/VDD GF_NI_COR_3/VSS
+ GF_NI_FILL10
XGF_NI_FILL10_153 GF_NI_COR_3/VDD GF_NI_COR_3/VSS GF_NI_COR_3/VDD GF_NI_COR_3/VSS
+ GF_NI_FILL10
XGF_NI_FILL10_164 GF_NI_COR_3/VDD GF_NI_COR_3/VSS GF_NI_COR_3/VDD GF_NI_COR_3/VSS
+ GF_NI_FILL10
XGF_NI_FILL10_175 GF_NI_COR_3/VDD GF_NI_COR_3/VSS GF_NI_COR_3/VDD GF_NI_COR_3/VSS
+ GF_NI_FILL10
XGF_NI_FILL10_186 GF_NI_COR_3/VDD GF_NI_COR_3/VSS GF_NI_COR_3/VDD GF_NI_COR_3/VSS
+ GF_NI_FILL10
XGF_NI_FILL10_197 GF_NI_COR_3/VDD GF_NI_COR_3/VSS GF_NI_COR_3/VDD GF_NI_COR_3/VSS
+ GF_NI_FILL10
XGF_NI_FILL10_708 GF_NI_COR_3/VDD GF_NI_COR_3/VSS GF_NI_COR_3/VDD GF_NI_COR_3/VSS
+ GF_NI_FILL10
XGF_NI_FILL10_719 GF_NI_COR_3/VDD GF_NI_COR_3/VSS GF_NI_COR_3/VDD GF_NI_COR_3/VSS
+ GF_NI_FILL10
XGF_NI_FILL10_516 GF_NI_COR_3/VDD GF_NI_COR_3/VSS GF_NI_COR_3/VDD GF_NI_COR_3/VSS
+ GF_NI_FILL10
XGF_NI_FILL10_527 GF_NI_COR_3/VDD GF_NI_COR_3/VSS GF_NI_COR_3/VDD GF_NI_COR_3/VSS
+ GF_NI_FILL10
XGF_NI_FILL10_538 GF_NI_COR_3/VDD GF_NI_COR_3/VSS GF_NI_COR_3/VDD GF_NI_COR_3/VSS
+ GF_NI_FILL10
XGF_NI_FILL10_549 GF_NI_COR_3/VDD GF_NI_COR_3/VSS GF_NI_COR_3/VDD GF_NI_COR_3/VSS
+ GF_NI_FILL10
XGF_NI_FILL10_505 GF_NI_COR_3/VDD GF_NI_COR_3/VSS GF_NI_COR_3/VDD GF_NI_COR_3/VSS
+ GF_NI_FILL10
XGF_NI_FILL10_97 GF_NI_COR_3/VDD GF_NI_COR_3/VSS GF_NI_COR_3/VDD GF_NI_COR_3/VSS GF_NI_FILL10
XGF_NI_FILL10_86 GF_NI_COR_3/VDD GF_NI_COR_3/VSS GF_NI_COR_3/VDD GF_NI_COR_3/VSS GF_NI_FILL10
XGF_NI_FILL10_75 GF_NI_COR_3/VDD GF_NI_COR_3/VSS GF_NI_COR_3/VDD GF_NI_COR_3/VSS GF_NI_FILL10
XGF_NI_FILL10_64 GF_NI_COR_3/VDD GF_NI_COR_3/VSS GF_NI_COR_3/VDD GF_NI_COR_3/VSS GF_NI_FILL10
XGF_NI_FILL10_53 GF_NI_COR_3/VDD GF_NI_COR_3/VSS GF_NI_COR_3/VDD GF_NI_COR_3/VSS GF_NI_FILL10
XGF_NI_FILL10_42 GF_NI_COR_3/VDD GF_NI_COR_3/VSS GF_NI_COR_3/VDD GF_NI_COR_3/VSS GF_NI_FILL10
XGF_NI_FILL10_31 GF_NI_COR_3/VDD GF_NI_COR_3/VSS GF_NI_COR_3/VDD GF_NI_COR_3/VSS GF_NI_FILL10
XGF_NI_FILL10_20 GF_NI_COR_3/VDD GF_NI_COR_3/VSS GF_NI_COR_3/VDD GF_NI_COR_3/VSS GF_NI_FILL10
XGF_NI_FILL10_379 GF_NI_COR_3/VDD GF_NI_COR_3/VSS GF_NI_COR_3/VDD GF_NI_COR_3/VSS
+ GF_NI_FILL10
XGF_NI_FILL10_368 GF_NI_COR_3/VDD GF_NI_COR_3/VSS GF_NI_COR_3/VDD GF_NI_COR_3/VSS
+ GF_NI_FILL10
XGF_NI_FILL10_357 GF_NI_COR_3/VDD GF_NI_COR_3/VSS GF_NI_COR_3/VDD GF_NI_COR_3/VSS
+ GF_NI_FILL10
XGF_NI_FILL10_346 GF_NI_COR_3/VDD GF_NI_COR_3/VSS GF_NI_COR_3/VDD GF_NI_COR_3/VSS
+ GF_NI_FILL10
XGF_NI_FILL10_335 GF_NI_COR_3/VDD GF_NI_COR_3/VSS GF_NI_COR_3/VDD GF_NI_COR_3/VSS
+ GF_NI_FILL10
XGF_NI_FILL10_324 GF_NI_COR_3/VDD GF_NI_COR_3/VSS GF_NI_COR_3/VDD GF_NI_COR_3/VSS
+ GF_NI_FILL10
XGF_NI_FILL10_313 GF_NI_COR_3/VDD GF_NI_COR_3/VSS GF_NI_COR_3/VDD GF_NI_COR_3/VSS
+ GF_NI_FILL10
XGF_NI_FILL10_302 GF_NI_COR_3/VDD GF_NI_COR_3/VSS GF_NI_COR_3/VDD GF_NI_COR_3/VSS
+ GF_NI_FILL10
XGF_NI_FILL10_880 GF_NI_COR_3/VDD GF_NI_COR_3/VSS GF_NI_COR_3/VDD GF_NI_COR_3/VSS
+ GF_NI_FILL10
XGF_NI_FILL10_891 GF_NI_COR_3/VDD GF_NI_COR_3/VSS GF_NI_COR_3/VDD GF_NI_COR_3/VSS
+ GF_NI_FILL10
XGF_NI_FILL10_110 GF_NI_COR_3/VDD GF_NI_COR_3/VSS GF_NI_COR_3/VDD GF_NI_COR_3/VSS
+ GF_NI_FILL10
XGF_NI_FILL10_121 GF_NI_COR_3/VDD GF_NI_COR_3/VSS GF_NI_COR_3/VDD GF_NI_COR_3/VSS
+ GF_NI_FILL10
XGF_NI_FILL10_132 GF_NI_COR_3/VDD GF_NI_COR_3/VSS GF_NI_COR_3/VDD GF_NI_COR_3/VSS
+ GF_NI_FILL10
XGF_NI_FILL10_143 GF_NI_COR_3/VDD GF_NI_COR_3/VSS GF_NI_COR_3/VDD GF_NI_COR_3/VSS
+ GF_NI_FILL10
XGF_NI_FILL10_154 GF_NI_COR_3/VDD GF_NI_COR_3/VSS GF_NI_COR_3/VDD GF_NI_COR_3/VSS
+ GF_NI_FILL10
XGF_NI_FILL10_165 GF_NI_COR_3/VDD GF_NI_COR_3/VSS GF_NI_COR_3/VDD GF_NI_COR_3/VSS
+ GF_NI_FILL10
XGF_NI_FILL10_176 GF_NI_COR_3/VDD GF_NI_COR_3/VSS GF_NI_COR_3/VDD GF_NI_COR_3/VSS
+ GF_NI_FILL10
XGF_NI_FILL10_187 GF_NI_COR_3/VDD GF_NI_COR_3/VSS GF_NI_COR_3/VDD GF_NI_COR_3/VSS
+ GF_NI_FILL10
XGF_NI_FILL10_198 GF_NI_COR_3/VDD GF_NI_COR_3/VSS GF_NI_COR_3/VDD GF_NI_COR_3/VSS
+ GF_NI_FILL10
XGF_NI_FILL10_709 GF_NI_COR_3/VDD GF_NI_COR_3/VSS GF_NI_COR_3/VDD GF_NI_COR_3/VSS
+ GF_NI_FILL10
XGF_NI_FILL10_517 GF_NI_COR_3/VDD GF_NI_COR_3/VSS GF_NI_COR_3/VDD GF_NI_COR_3/VSS
+ GF_NI_FILL10
XGF_NI_FILL10_528 GF_NI_COR_3/VDD GF_NI_COR_3/VSS GF_NI_COR_3/VDD GF_NI_COR_3/VSS
+ GF_NI_FILL10
XGF_NI_FILL10_539 GF_NI_COR_3/VDD GF_NI_COR_3/VSS GF_NI_COR_3/VDD GF_NI_COR_3/VSS
+ GF_NI_FILL10
XGF_NI_FILL10_506 GF_NI_COR_3/VDD GF_NI_COR_3/VSS GF_NI_COR_3/VDD GF_NI_COR_3/VSS
+ GF_NI_FILL10
XGF_NI_FILL10_87 GF_NI_COR_3/VDD GF_NI_COR_3/VSS GF_NI_COR_3/VDD GF_NI_COR_3/VSS GF_NI_FILL10
XGF_NI_FILL10_65 GF_NI_COR_3/VDD GF_NI_COR_3/VSS GF_NI_COR_3/VDD GF_NI_COR_3/VSS GF_NI_FILL10
XGF_NI_FILL10_76 GF_NI_COR_3/VDD GF_NI_COR_3/VSS GF_NI_COR_3/VDD GF_NI_COR_3/VSS GF_NI_FILL10
XGF_NI_FILL10_54 GF_NI_COR_3/VDD GF_NI_COR_3/VSS GF_NI_COR_3/VDD GF_NI_COR_3/VSS GF_NI_FILL10
XGF_NI_FILL10_43 GF_NI_COR_3/VDD GF_NI_COR_3/VSS GF_NI_COR_3/VDD GF_NI_COR_3/VSS GF_NI_FILL10
XGF_NI_FILL10_32 GF_NI_COR_3/VDD GF_NI_COR_3/VSS GF_NI_COR_3/VDD GF_NI_COR_3/VSS GF_NI_FILL10
XGF_NI_FILL10_21 GF_NI_COR_3/VDD GF_NI_COR_3/VSS GF_NI_COR_3/VDD GF_NI_COR_3/VSS GF_NI_FILL10
XGF_NI_FILL10_10 GF_NI_COR_3/VDD GF_NI_COR_3/VSS GF_NI_COR_3/VDD GF_NI_COR_3/VSS GF_NI_FILL10
XGF_NI_FILL10_98 GF_NI_COR_3/VDD GF_NI_COR_3/VSS GF_NI_COR_3/VDD GF_NI_COR_3/VSS GF_NI_FILL10
XGF_NI_FILL10_303 GF_NI_COR_3/VDD GF_NI_COR_3/VSS GF_NI_COR_3/VDD GF_NI_COR_3/VSS
+ GF_NI_FILL10
XGF_NI_FILL10_369 GF_NI_COR_3/VDD GF_NI_COR_3/VSS GF_NI_COR_3/VDD GF_NI_COR_3/VSS
+ GF_NI_FILL10
XGF_NI_FILL10_358 GF_NI_COR_3/VDD GF_NI_COR_3/VSS GF_NI_COR_3/VDD GF_NI_COR_3/VSS
+ GF_NI_FILL10
XGF_NI_FILL10_347 GF_NI_COR_3/VDD GF_NI_COR_3/VSS GF_NI_COR_3/VDD GF_NI_COR_3/VSS
+ GF_NI_FILL10
XGF_NI_FILL10_336 GF_NI_COR_3/VDD GF_NI_COR_3/VSS GF_NI_COR_3/VDD GF_NI_COR_3/VSS
+ GF_NI_FILL10
XGF_NI_FILL10_325 GF_NI_COR_3/VDD GF_NI_COR_3/VSS GF_NI_COR_3/VDD GF_NI_COR_3/VSS
+ GF_NI_FILL10
XGF_NI_FILL10_314 GF_NI_COR_3/VDD GF_NI_COR_3/VSS GF_NI_COR_3/VDD GF_NI_COR_3/VSS
+ GF_NI_FILL10
XGF_NI_FILL10_870 GF_NI_COR_3/VDD GF_NI_COR_3/VSS GF_NI_COR_3/VDD GF_NI_COR_3/VSS
+ GF_NI_FILL10
XGF_NI_FILL10_881 GF_NI_COR_3/VDD GF_NI_COR_3/VSS GF_NI_COR_3/VDD GF_NI_COR_3/VSS
+ GF_NI_FILL10
XGF_NI_FILL10_892 GF_NI_COR_3/VDD GF_NI_COR_3/VSS GF_NI_COR_3/VDD GF_NI_COR_3/VSS
+ GF_NI_FILL10
XGF_NI_IN_S_0 GF_NI_COR_3/VDD GF_NI_COR_3/VSS resetb GF_NI_IN_S_0/PD GF_NI_IN_S_0/PU
+ GF_NI_COR_3/VDD GF_NI_COR_3/VSS resetb_core GF_NI_IN_S
XGF_NI_FILL10_100 GF_NI_COR_3/VDD GF_NI_COR_3/VSS GF_NI_COR_3/VDD GF_NI_COR_3/VSS
+ GF_NI_FILL10
XGF_NI_FILL10_111 GF_NI_COR_3/VDD GF_NI_COR_3/VSS GF_NI_COR_3/VDD GF_NI_COR_3/VSS
+ GF_NI_FILL10
XGF_NI_FILL10_122 GF_NI_COR_3/VDD GF_NI_COR_3/VSS GF_NI_COR_3/VDD GF_NI_COR_3/VSS
+ GF_NI_FILL10
XGF_NI_FILL10_133 GF_NI_COR_3/VDD GF_NI_COR_3/VSS GF_NI_COR_3/VDD GF_NI_COR_3/VSS
+ GF_NI_FILL10
XGF_NI_FILL10_144 GF_NI_COR_3/VDD GF_NI_COR_3/VSS GF_NI_COR_3/VDD GF_NI_COR_3/VSS
+ GF_NI_FILL10
XGF_NI_FILL10_155 GF_NI_COR_3/VDD GF_NI_COR_3/VSS GF_NI_COR_3/VDD GF_NI_COR_3/VSS
+ GF_NI_FILL10
XGF_NI_FILL10_166 GF_NI_COR_3/VDD GF_NI_COR_3/VSS GF_NI_COR_3/VDD GF_NI_COR_3/VSS
+ GF_NI_FILL10
XGF_NI_FILL10_177 GF_NI_COR_3/VDD GF_NI_COR_3/VSS GF_NI_COR_3/VDD GF_NI_COR_3/VSS
+ GF_NI_FILL10
XGF_NI_FILL10_188 GF_NI_COR_3/VDD GF_NI_COR_3/VSS GF_NI_COR_3/VDD GF_NI_COR_3/VSS
+ GF_NI_FILL10
XGF_NI_FILL10_199 GF_NI_COR_3/VDD GF_NI_COR_3/VSS GF_NI_COR_3/VDD GF_NI_COR_3/VSS
+ GF_NI_FILL10
XGF_NI_DVSS_0 GF_NI_COR_3/VDD GF_NI_COR_3/VSS GF_NI_COR_3/VDD GF_NI_DVSS
XGF_NI_FILL10_518 GF_NI_COR_3/VDD GF_NI_COR_3/VSS GF_NI_COR_3/VDD GF_NI_COR_3/VSS
+ GF_NI_FILL10
XGF_NI_FILL10_529 GF_NI_COR_3/VDD GF_NI_COR_3/VSS GF_NI_COR_3/VDD GF_NI_COR_3/VSS
+ GF_NI_FILL10
XGF_NI_FILL10_507 GF_NI_COR_3/VDD GF_NI_COR_3/VSS GF_NI_COR_3/VDD GF_NI_COR_3/VSS
+ GF_NI_FILL10
XGF_NI_FILL10_44 GF_NI_COR_3/VDD GF_NI_COR_3/VSS GF_NI_COR_3/VDD GF_NI_COR_3/VSS GF_NI_FILL10
XGF_NI_FILL10_33 GF_NI_COR_3/VDD GF_NI_COR_3/VSS GF_NI_COR_3/VDD GF_NI_COR_3/VSS GF_NI_FILL10
XGF_NI_FILL10_22 GF_NI_COR_3/VDD GF_NI_COR_3/VSS GF_NI_COR_3/VDD GF_NI_COR_3/VSS GF_NI_FILL10
XGF_NI_FILL10_11 GF_NI_COR_3/VDD GF_NI_COR_3/VSS GF_NI_COR_3/VDD GF_NI_COR_3/VSS GF_NI_FILL10
XGF_NI_FILL10_66 GF_NI_COR_3/VDD GF_NI_COR_3/VSS GF_NI_COR_3/VDD GF_NI_COR_3/VSS GF_NI_FILL10
XGF_NI_FILL10_77 GF_NI_COR_3/VDD GF_NI_COR_3/VSS GF_NI_COR_3/VDD GF_NI_COR_3/VSS GF_NI_FILL10
XGF_NI_FILL10_55 GF_NI_COR_3/VDD GF_NI_COR_3/VSS GF_NI_COR_3/VDD GF_NI_COR_3/VSS GF_NI_FILL10
XGF_NI_FILL10_88 GF_NI_COR_3/VDD GF_NI_COR_3/VSS GF_NI_COR_3/VDD GF_NI_COR_3/VSS GF_NI_FILL10
XGF_NI_FILL10_99 GF_NI_COR_3/VDD GF_NI_COR_3/VSS GF_NI_COR_3/VDD GF_NI_COR_3/VSS GF_NI_FILL10
XGF_NI_FILL10_359 GF_NI_COR_3/VDD GF_NI_COR_3/VSS GF_NI_COR_3/VDD GF_NI_COR_3/VSS
+ GF_NI_FILL10
XGF_NI_FILL10_348 GF_NI_COR_3/VDD GF_NI_COR_3/VSS GF_NI_COR_3/VDD GF_NI_COR_3/VSS
+ GF_NI_FILL10
XGF_NI_FILL10_337 GF_NI_COR_3/VDD GF_NI_COR_3/VSS GF_NI_COR_3/VDD GF_NI_COR_3/VSS
+ GF_NI_FILL10
XGF_NI_FILL10_326 GF_NI_COR_3/VDD GF_NI_COR_3/VSS GF_NI_COR_3/VDD GF_NI_COR_3/VSS
+ GF_NI_FILL10
XGF_NI_FILL10_315 GF_NI_COR_3/VDD GF_NI_COR_3/VSS GF_NI_COR_3/VDD GF_NI_COR_3/VSS
+ GF_NI_FILL10
XGF_NI_FILL10_304 GF_NI_COR_3/VDD GF_NI_COR_3/VSS GF_NI_COR_3/VDD GF_NI_COR_3/VSS
+ GF_NI_FILL10
XGF_NI_FILL10_860 GF_NI_COR_3/VDD GF_NI_COR_3/VSS GF_NI_COR_3/VDD GF_NI_COR_3/VSS
+ GF_NI_FILL10
XGF_NI_FILL10_882 GF_NI_COR_3/VDD GF_NI_COR_3/VSS GF_NI_COR_3/VDD GF_NI_COR_3/VSS
+ GF_NI_FILL10
XGF_NI_FILL10_893 GF_NI_COR_3/VDD GF_NI_COR_3/VSS GF_NI_COR_3/VDD GF_NI_COR_3/VSS
+ GF_NI_FILL10
XGF_NI_FILL10_871 GF_NI_COR_3/VDD GF_NI_COR_3/VSS GF_NI_COR_3/VDD GF_NI_COR_3/VSS
+ GF_NI_FILL10
XGF_NI_FILL10_101 GF_NI_COR_3/VDD GF_NI_COR_3/VSS GF_NI_COR_3/VDD GF_NI_COR_3/VSS
+ GF_NI_FILL10
XGF_NI_FILL10_112 GF_NI_COR_3/VDD GF_NI_COR_3/VSS GF_NI_COR_3/VDD GF_NI_COR_3/VSS
+ GF_NI_FILL10
XGF_NI_FILL10_123 GF_NI_COR_3/VDD GF_NI_COR_3/VSS GF_NI_COR_3/VDD GF_NI_COR_3/VSS
+ GF_NI_FILL10
XGF_NI_FILL10_134 GF_NI_COR_3/VDD GF_NI_COR_3/VSS GF_NI_COR_3/VDD GF_NI_COR_3/VSS
+ GF_NI_FILL10
XGF_NI_FILL10_145 GF_NI_COR_3/VDD GF_NI_COR_3/VSS GF_NI_COR_3/VDD GF_NI_COR_3/VSS
+ GF_NI_FILL10