* NGSPICE file created from caravel.ext - technology: gf180mcuC

* Black-box entry subcircuit for gpio_control_block abstract view
.subckt gpio_control_block VDD VSS gpio_defaults[0] gpio_defaults[1] gpio_defaults[2]
+ gpio_defaults[3] gpio_defaults[4] gpio_defaults[5] gpio_defaults[6] gpio_defaults[7]
+ gpio_defaults[8] gpio_defaults[9] mgmt_gpio_in mgmt_gpio_oeb mgmt_gpio_out one pad_gpio_drive_sel[0]
+ pad_gpio_drive_sel[1] pad_gpio_in pad_gpio_inen pad_gpio_out pad_gpio_outen pad_gpio_pulldown_sel
+ pad_gpio_pullup_sel pad_gpio_schmitt_sel pad_gpio_slew_sel resetn resetn_out serial_clock
+ serial_clock_out serial_data_in serial_data_out serial_load serial_load_out user_gpio_in
+ user_gpio_oeb user_gpio_out zero
.ends

* Black-box entry subcircuit for gpio_defaults_block abstract view
.subckt gpio_defaults_block gpio_defaults[0] gpio_defaults[1] gpio_defaults[2] gpio_defaults[3]
+ gpio_defaults[4] gpio_defaults[5] gpio_defaults[6] gpio_defaults[7] gpio_defaults[8]
+ gpio_defaults[9] VDD VSS
.ends

* Black-box entry subcircuit for digital_pll abstract view
.subckt digital_pll VDD VSS clockp[0] clockp[1] dco div[0] div[1] div[2] div[3] div[4]
+ enable ext_trim[0] ext_trim[10] ext_trim[11] ext_trim[12] ext_trim[13] ext_trim[14]
+ ext_trim[15] ext_trim[16] ext_trim[17] ext_trim[18] ext_trim[19] ext_trim[1] ext_trim[20]
+ ext_trim[21] ext_trim[22] ext_trim[23] ext_trim[24] ext_trim[25] ext_trim[2] ext_trim[3]
+ ext_trim[4] ext_trim[5] ext_trim[6] ext_trim[7] ext_trim[8] ext_trim[9] osc resetb
.ends

* Black-box entry subcircuit for gf180mcu_fd_io__fill10 abstract view
.subckt gf180mcu_fd_io__fill10 DVDD DVSS VDD VSS
.ends

* Black-box entry subcircuit for gf180mcu_fd_io__in_s abstract view
.subckt gf180mcu_fd_io__in_s DVDD DVSS PAD PD PU VDD VSS Y
.ends

* Black-box entry subcircuit for gf180mcu_fd_io__dvss abstract view
.subckt gf180mcu_fd_io__dvss DVDD DVSS VDD
.ends

* Black-box entry subcircuit for gf180mcu_fd_io__dvdd abstract view
.subckt gf180mcu_fd_io__dvdd DVDD DVSS VSS
.ends

* Black-box entry subcircuit for gf180mcu_fd_io__fill5 abstract view
.subckt gf180mcu_fd_io__fill5 DVDD DVSS VDD VSS
.ends

* Black-box entry subcircuit for gf180mcu_fd_io__bi_t abstract view
.subckt gf180mcu_fd_io__bi_t A CS DVDD DVSS IE OE PAD PD PDRV0 PDRV1 PU SL VDD VSS Y
.ends

* Black-box entry subcircuit for gf180mcu_fd_io__in_c abstract view
.subckt gf180mcu_fd_io__in_c DVDD DVSS PAD PD PU VDD VSS Y
.ends

* Black-box entry subcircuit for gf180mcu_fd_io__cor abstract view
.subckt gf180mcu_fd_io__cor DVDD DVSS VDD VSS
.ends

.subckt chip_io clock clock_core flash_clk flash_clk_core flash_clk_oe_core flash_csb
+ flash_csb_core flash_csb_oe_core flash_io0 flash_io0_di_core flash_io0_do_core flash_io0_ie_core
+ flash_io0_oe_core flash_io1 flash_io1_di_core flash_io1_do_core flash_io1_ie_core
+ flash_io1_oe_core gpio gpio_drive_select_core[0] gpio_drive_select_core[1] gpio_in_core
+ gpio_inen_core gpio_out_core gpio_outen_core gpio_pd_select gpio_pu_select gpio_schmitt_select
+ gpio_slew_select mprj_io[0] mprj_io[10] mprj_io[11] mprj_io[12] mprj_io[13] mprj_io[14]
+ mprj_io[15] mprj_io[16] mprj_io[17] mprj_io[18] mprj_io[19] mprj_io[1] mprj_io[20]
+ mprj_io[21] mprj_io[22] mprj_io[23] mprj_io[24] mprj_io[25] mprj_io[26] mprj_io[27]
+ mprj_io[28] mprj_io[29] mprj_io[2] mprj_io[30] mprj_io[31] mprj_io[32] mprj_io[33]
+ mprj_io[34] mprj_io[35] mprj_io[36] mprj_io[37] mprj_io[3] mprj_io[4] mprj_io[5]
+ mprj_io[6] mprj_io[7] mprj_io[8] mprj_io[9] mprj_io_drive_sel[0] mprj_io_drive_sel[10]
+ mprj_io_drive_sel[11] mprj_io_drive_sel[12] mprj_io_drive_sel[13] mprj_io_drive_sel[14]
+ mprj_io_drive_sel[15] mprj_io_drive_sel[16] mprj_io_drive_sel[17] mprj_io_drive_sel[18]
+ mprj_io_drive_sel[19] mprj_io_drive_sel[1] mprj_io_drive_sel[20] mprj_io_drive_sel[21]
+ mprj_io_drive_sel[22] mprj_io_drive_sel[23] mprj_io_drive_sel[24] mprj_io_drive_sel[25]
+ mprj_io_drive_sel[26] mprj_io_drive_sel[27] mprj_io_drive_sel[28] mprj_io_drive_sel[29]
+ mprj_io_drive_sel[2] mprj_io_drive_sel[30] mprj_io_drive_sel[31] mprj_io_drive_sel[32]
+ mprj_io_drive_sel[33] mprj_io_drive_sel[34] mprj_io_drive_sel[35] mprj_io_drive_sel[36]
+ mprj_io_drive_sel[37] mprj_io_drive_sel[38] mprj_io_drive_sel[39] mprj_io_drive_sel[3]
+ mprj_io_drive_sel[40] mprj_io_drive_sel[41] mprj_io_drive_sel[42] mprj_io_drive_sel[43]
+ mprj_io_drive_sel[44] mprj_io_drive_sel[45] mprj_io_drive_sel[46] mprj_io_drive_sel[47]
+ mprj_io_drive_sel[48] mprj_io_drive_sel[49] mprj_io_drive_sel[4] mprj_io_drive_sel[51]
+ mprj_io_drive_sel[525] mprj_io_drive_sel[52] mprj_io_drive_sel[53] mprj_io_drive_sel[54]
+ mprj_io_drive_sel[55] mprj_io_drive_sel[56] mprj_io_drive_sel[57] mprj_io_drive_sel[58]
+ mprj_io_drive_sel[59] mprj_io_drive_sel[5] mprj_io_drive_sel[61] mprj_io_drive_sel[62]
+ mprj_io_drive_sel[63] mprj_io_drive_sel[64] mprj_io_drive_sel[65] mprj_io_drive_sel[66]
+ mprj_io_drive_sel[67] mprj_io_drive_sel[68] mprj_io_drive_sel[69] mprj_io_drive_sel[6]
+ mprj_io_drive_sel[70] mprj_io_drive_sel[71] mprj_io_drive_sel[72] mprj_io_drive_sel[73]
+ mprj_io_drive_sel[74] mprj_io_drive_sel[75] mprj_io_drive_sel[7] mprj_io_drive_sel[8]
+ mprj_io_drive_sel[9] mprj_io_in[0] mprj_io_in[10] mprj_io_in[11] mprj_io_in[12]
+ mprj_io_in[13] mprj_io_in[14] mprj_io_in[15] mprj_io_in[16] mprj_io_in[17] mprj_io_in[18]
+ mprj_io_in[19] mprj_io_in[1] mprj_io_in[20] mprj_io_in[21] mprj_io_in[22] mprj_io_in[23]
+ mprj_io_in[24] mprj_io_in[25] mprj_io_in[26] mprj_io_in[27] mprj_io_in[28] mprj_io_in[29]
+ mprj_io_in[2] mprj_io_in[30] mprj_io_in[31] mprj_io_in[32] mprj_io_in[33] mprj_io_in[34]
+ mprj_io_in[35] mprj_io_in[36] mprj_io_in[37] mprj_io_in[3] mprj_io_in[4] mprj_io_in[5]
+ mprj_io_in[6] mprj_io_in[7] mprj_io_in[8] mprj_io_in[9] mprj_io_inen[0] mprj_io_inen[10]
+ mprj_io_inen[11] mprj_io_inen[12] mprj_io_inen[13] mprj_io_inen[14] mprj_io_inen[15]
+ mprj_io_inen[16] mprj_io_inen[17] mprj_io_inen[18] mprj_io_inen[19] mprj_io_inen[1]
+ mprj_io_inen[20] mprj_io_inen[21] mprj_io_inen[22] mprj_io_inen[23] mprj_io_inen[24]
+ mprj_io_inen[25] mprj_io_inen[26] mprj_io_inen[27] mprj_io_inen[28] mprj_io_inen[29]
+ mprj_io_inen[2] mprj_io_inen[30] mprj_io_inen[31] mprj_io_inen[32] mprj_io_inen[33]
+ mprj_io_inen[34] mprj_io_inen[35] mprj_io_inen[36] mprj_io_inen[37] mprj_io_inen[3]
+ mprj_io_inen[4] mprj_io_inen[5] mprj_io_inen[6] mprj_io_inen[7] mprj_io_inen[8]
+ mprj_io_inen[9] mprj_io_out[0] mprj_io_out[10] mprj_io_out[11] mprj_io_out[12] mprj_io_out[13]
+ mprj_io_out[14] mprj_io_out[15] mprj_io_out[16] mprj_io_out[17] mprj_io_out[18]
+ mprj_io_out[19] mprj_io_out[1] mprj_io_out[20] mprj_io_out[21] mprj_io_out[22] mprj_io_out[23]
+ mprj_io_out[24] mprj_io_out[25] mprj_io_out[26] mprj_io_out[27] mprj_io_out[28]
+ mprj_io_out[29] mprj_io_out[2] mprj_io_out[30] mprj_io_out[31] mprj_io_out[32] mprj_io_out[33]
+ mprj_io_out[34] mprj_io_out[35] mprj_io_out[36] mprj_io_out[37] mprj_io_out[3] mprj_io_out[4]
+ mprj_io_out[5] mprj_io_out[6] mprj_io_out[7] mprj_io_out[8] mprj_io_out[9] mprj_io_outen[0]
+ mprj_io_outen[10] mprj_io_outen[11] mprj_io_outen[12] mprj_io_outen[13] mprj_io_outen[14]
+ mprj_io_outen[15] mprj_io_outen[16] mprj_io_outen[17] mprj_io_outen[18] mprj_io_outen[19]
+ mprj_io_outen[1] mprj_io_outen[20] mprj_io_outen[21] mprj_io_outen[22] mprj_io_outen[23]
+ mprj_io_outen[24] mprj_io_outen[25] mprj_io_outen[26] mprj_io_outen[27] mprj_io_outen[28]
+ mprj_io_outen[29] mprj_io_outen[2] mprj_io_outen[30] mprj_io_outen[31] mprj_io_outen[32]
+ mprj_io_outen[33] mprj_io_outen[34] mprj_io_outen[35] mprj_io_outen[36] mprj_io_outen[37]
+ mprj_io_outen[3] mprj_io_outen[4] mprj_io_outen[5] mprj_io_outen[6] mprj_io_outen[7]
+ mprj_io_outen[8] mprj_io_outen[9] mprj_io_pd_select[0] mprj_io_pd_select[10] mprj_io_pd_select[11]
+ mprj_io_pd_select[12] mprj_io_pd_select[13] mprj_io_pd_select[14] mprj_io_pd_select[15]
+ mprj_io_pd_select[16] mprj_io_pd_select[17] mprj_io_pd_select[18] mprj_io_pd_select[19]
+ mprj_io_pd_select[1] mprj_io_pd_select[20] mprj_io_pd_select[21] mprj_io_pd_select[22]
+ mprj_io_pd_select[23] mprj_io_pd_select[24] mprj_io_pd_select[25] mprj_io_pd_select[26]
+ mprj_io_pd_select[27] mprj_io_pd_select[28] mprj_io_pd_select[29] mprj_io_pd_select[2]
+ mprj_io_pd_select[30] mprj_io_pd_select[31] mprj_io_pd_select[32] mprj_io_pd_select[33]
+ mprj_io_pd_select[34] mprj_io_pd_select[35] mprj_io_pd_select[36] mprj_io_pd_select[37]
+ mprj_io_pd_select[3] mprj_io_pd_select[4] mprj_io_pd_select[5] mprj_io_pd_select[6]
+ mprj_io_pd_select[7] mprj_io_pd_select[8] mprj_io_pd_select[9] mprj_io_pu_select[0]
+ mprj_io_pu_select[10] mprj_io_pu_select[11] mprj_io_pu_select[12] mprj_io_pu_select[13]
+ mprj_io_pu_select[14] mprj_io_pu_select[15] mprj_io_pu_select[16] mprj_io_pu_select[17]
+ mprj_io_pu_select[18] mprj_io_pu_select[19] mprj_io_pu_select[1] mprj_io_pu_select[20]
+ mprj_io_pu_select[21] mprj_io_pu_select[22] mprj_io_pu_select[23] mprj_io_pu_select[24]
+ mprj_io_pu_select[25] mprj_io_pu_select[26] mprj_io_pu_select[27] mprj_io_pu_select[28]
+ mprj_io_pu_select[29] mprj_io_pu_select[2] mprj_io_pu_select[30] mprj_io_pu_select[31]
+ mprj_io_pu_select[32] mprj_io_pu_select[33] mprj_io_pu_select[34] mprj_io_pu_select[35]
+ mprj_io_pu_select[36] mprj_io_pu_select[37] mprj_io_pu_select[3] mprj_io_pu_select[4]
+ mprj_io_pu_select[5] mprj_io_pu_select[6] mprj_io_pu_select[7] mprj_io_pu_select[8]
+ mprj_io_pu_select[9] mprj_io_schmitt_select[0] mprj_io_schmitt_select[10] mprj_io_schmitt_select[11]
+ mprj_io_schmitt_select[12] mprj_io_schmitt_select[13] mprj_io_schmitt_select[14]
+ mprj_io_schmitt_select[15] mprj_io_schmitt_select[16] mprj_io_schmitt_select[17]
+ mprj_io_schmitt_select[18] mprj_io_schmitt_select[19] mprj_io_schmitt_select[1]
+ mprj_io_schmitt_select[20] mprj_io_schmitt_select[21] mprj_io_schmitt_select[22]
+ mprj_io_schmitt_select[23] mprj_io_schmitt_select[24] mprj_io_schmitt_select[25]
+ mprj_io_schmitt_select[26] mprj_io_schmitt_select[27] mprj_io_schmitt_select[28]
+ mprj_io_schmitt_select[29] mprj_io_schmitt_select[2] mprj_io_schmitt_select[30]
+ mprj_io_schmitt_select[31] mprj_io_schmitt_select[32] mprj_io_schmitt_select[33]
+ mprj_io_schmitt_select[34] mprj_io_schmitt_select[35] mprj_io_schmitt_select[36]
+ mprj_io_schmitt_select[37] mprj_io_schmitt_select[3] mprj_io_schmitt_select[4] mprj_io_schmitt_select[5]
+ mprj_io_schmitt_select[6] mprj_io_schmitt_select[7] mprj_io_schmitt_select[8] mprj_io_schmitt_select[9]
+ mprj_io_slew_select[0] mprj_io_slew_select[10] mprj_io_slew_select[11] mprj_io_slew_select[12]
+ mprj_io_slew_select[13] mprj_io_slew_select[14] mprj_io_slew_select[15] mprj_io_slew_select[16]
+ mprj_io_slew_select[17] mprj_io_slew_select[18] mprj_io_slew_select[19] mprj_io_slew_select[1]
+ mprj_io_slew_select[20] mprj_io_slew_select[21] mprj_io_slew_select[22] mprj_io_slew_select[23]
+ mprj_io_slew_select[24] mprj_io_slew_select[25] mprj_io_slew_select[26] mprj_io_slew_select[27]
+ mprj_io_slew_select[28] mprj_io_slew_select[29] mprj_io_slew_select[2] mprj_io_slew_select[30]
+ mprj_io_slew_select[31] mprj_io_slew_select[32] mprj_io_slew_select[33] mprj_io_slew_select[34]
+ mprj_io_slew_select[35] mprj_io_slew_select[36] mprj_io_slew_select[37] mprj_io_slew_select[3]
+ mprj_io_slew_select[4] mprj_io_slew_select[5] mprj_io_slew_select[6] mprj_io_slew_select[7]
+ mprj_io_slew_select[8] mprj_io_slew_select[9] resetb resetb_core vdd vss gf180mcu_fd_io__cor_3/VSS
+ gf180mcu_fd_io__cor_3/VDD
Xgf180mcu_fd_io__fill10_513 gf180mcu_fd_io__cor_3/VDD gf180mcu_fd_io__cor_3/VSS gf180mcu_fd_io__cor_3/VDD gf180mcu_fd_io__cor_3/VSS
+ gf180mcu_fd_io__fill10
Xgf180mcu_fd_io__fill10_524 gf180mcu_fd_io__cor_3/VDD gf180mcu_fd_io__cor_3/VSS gf180mcu_fd_io__cor_3/VDD gf180mcu_fd_io__cor_3/VSS
+ gf180mcu_fd_io__fill10
Xgf180mcu_fd_io__fill10_535 gf180mcu_fd_io__cor_3/VDD gf180mcu_fd_io__cor_3/VSS gf180mcu_fd_io__cor_3/VDD gf180mcu_fd_io__cor_3/VSS
+ gf180mcu_fd_io__fill10
Xgf180mcu_fd_io__fill10_546 gf180mcu_fd_io__cor_3/VDD gf180mcu_fd_io__cor_3/VSS gf180mcu_fd_io__cor_3/VDD gf180mcu_fd_io__cor_3/VSS
+ gf180mcu_fd_io__fill10
Xgf180mcu_fd_io__fill10_557 gf180mcu_fd_io__cor_3/VDD gf180mcu_fd_io__cor_3/VSS gf180mcu_fd_io__cor_3/VDD gf180mcu_fd_io__cor_3/VSS
+ gf180mcu_fd_io__fill10
Xgf180mcu_fd_io__fill10_568 gf180mcu_fd_io__cor_3/VDD gf180mcu_fd_io__cor_3/VSS gf180mcu_fd_io__cor_3/VDD gf180mcu_fd_io__cor_3/VSS
+ gf180mcu_fd_io__fill10
Xgf180mcu_fd_io__fill10_579 gf180mcu_fd_io__cor_3/VDD gf180mcu_fd_io__cor_3/VSS gf180mcu_fd_io__cor_3/VDD gf180mcu_fd_io__cor_3/VSS
+ gf180mcu_fd_io__fill10
Xgf180mcu_fd_io__fill10_502 gf180mcu_fd_io__cor_3/VDD gf180mcu_fd_io__cor_3/VSS gf180mcu_fd_io__cor_3/VDD gf180mcu_fd_io__cor_3/VSS
+ gf180mcu_fd_io__fill10
Xgf180mcu_fd_io__fill10_94 gf180mcu_fd_io__cor_3/VDD gf180mcu_fd_io__cor_3/VSS gf180mcu_fd_io__cor_3/VDD gf180mcu_fd_io__cor_3/VSS gf180mcu_fd_io__fill10
Xgf180mcu_fd_io__fill10_83 gf180mcu_fd_io__cor_3/VDD gf180mcu_fd_io__cor_3/VSS gf180mcu_fd_io__cor_3/VDD gf180mcu_fd_io__cor_3/VSS gf180mcu_fd_io__fill10
Xgf180mcu_fd_io__fill10_72 gf180mcu_fd_io__cor_3/VDD gf180mcu_fd_io__cor_3/VSS gf180mcu_fd_io__cor_3/VDD gf180mcu_fd_io__cor_3/VSS gf180mcu_fd_io__fill10
Xgf180mcu_fd_io__fill10_61 gf180mcu_fd_io__cor_3/VDD gf180mcu_fd_io__cor_3/VSS gf180mcu_fd_io__cor_3/VDD gf180mcu_fd_io__cor_3/VSS gf180mcu_fd_io__fill10
Xgf180mcu_fd_io__fill10_50 gf180mcu_fd_io__cor_3/VDD gf180mcu_fd_io__cor_3/VSS gf180mcu_fd_io__cor_3/VDD gf180mcu_fd_io__cor_3/VSS gf180mcu_fd_io__fill10
Xgf180mcu_fd_io__fill10_398 gf180mcu_fd_io__cor_3/VDD gf180mcu_fd_io__cor_3/VSS gf180mcu_fd_io__cor_3/VDD gf180mcu_fd_io__cor_3/VSS
+ gf180mcu_fd_io__fill10
Xgf180mcu_fd_io__fill10_387 gf180mcu_fd_io__cor_3/VDD gf180mcu_fd_io__cor_3/VSS gf180mcu_fd_io__cor_3/VDD gf180mcu_fd_io__cor_3/VSS
+ gf180mcu_fd_io__fill10
Xgf180mcu_fd_io__fill10_376 gf180mcu_fd_io__cor_3/VDD gf180mcu_fd_io__cor_3/VSS gf180mcu_fd_io__cor_3/VDD gf180mcu_fd_io__cor_3/VSS
+ gf180mcu_fd_io__fill10
Xgf180mcu_fd_io__fill10_365 gf180mcu_fd_io__cor_3/VDD gf180mcu_fd_io__cor_3/VSS gf180mcu_fd_io__cor_3/VDD gf180mcu_fd_io__cor_3/VSS
+ gf180mcu_fd_io__fill10
Xgf180mcu_fd_io__fill10_354 gf180mcu_fd_io__cor_3/VDD gf180mcu_fd_io__cor_3/VSS gf180mcu_fd_io__cor_3/VDD gf180mcu_fd_io__cor_3/VSS
+ gf180mcu_fd_io__fill10
Xgf180mcu_fd_io__fill10_343 gf180mcu_fd_io__cor_3/VDD gf180mcu_fd_io__cor_3/VSS gf180mcu_fd_io__cor_3/VDD gf180mcu_fd_io__cor_3/VSS
+ gf180mcu_fd_io__fill10
Xgf180mcu_fd_io__fill10_332 gf180mcu_fd_io__cor_3/VDD gf180mcu_fd_io__cor_3/VSS gf180mcu_fd_io__cor_3/VDD gf180mcu_fd_io__cor_3/VSS
+ gf180mcu_fd_io__fill10
Xgf180mcu_fd_io__fill10_321 gf180mcu_fd_io__cor_3/VDD gf180mcu_fd_io__cor_3/VSS gf180mcu_fd_io__cor_3/VDD gf180mcu_fd_io__cor_3/VSS
+ gf180mcu_fd_io__fill10
Xgf180mcu_fd_io__fill10_310 gf180mcu_fd_io__cor_3/VDD gf180mcu_fd_io__cor_3/VSS gf180mcu_fd_io__cor_3/VDD gf180mcu_fd_io__cor_3/VSS
+ gf180mcu_fd_io__fill10
Xgf180mcu_fd_io__fill10_140 gf180mcu_fd_io__cor_3/VDD gf180mcu_fd_io__cor_3/VSS gf180mcu_fd_io__cor_3/VDD gf180mcu_fd_io__cor_3/VSS
+ gf180mcu_fd_io__fill10
Xgf180mcu_fd_io__fill10_151 gf180mcu_fd_io__cor_3/VDD gf180mcu_fd_io__cor_3/VSS gf180mcu_fd_io__cor_3/VDD gf180mcu_fd_io__cor_3/VSS
+ gf180mcu_fd_io__fill10
Xgf180mcu_fd_io__fill10_162 gf180mcu_fd_io__cor_3/VDD gf180mcu_fd_io__cor_3/VSS gf180mcu_fd_io__cor_3/VDD gf180mcu_fd_io__cor_3/VSS
+ gf180mcu_fd_io__fill10
Xgf180mcu_fd_io__fill10_173 gf180mcu_fd_io__cor_3/VDD gf180mcu_fd_io__cor_3/VSS gf180mcu_fd_io__cor_3/VDD gf180mcu_fd_io__cor_3/VSS
+ gf180mcu_fd_io__fill10
Xgf180mcu_fd_io__fill10_184 gf180mcu_fd_io__cor_3/VDD gf180mcu_fd_io__cor_3/VSS gf180mcu_fd_io__cor_3/VDD gf180mcu_fd_io__cor_3/VSS
+ gf180mcu_fd_io__fill10
Xgf180mcu_fd_io__fill10_195 gf180mcu_fd_io__cor_3/VDD gf180mcu_fd_io__cor_3/VSS gf180mcu_fd_io__cor_3/VDD gf180mcu_fd_io__cor_3/VSS
+ gf180mcu_fd_io__fill10
Xgf180mcu_fd_io__fill10_909 gf180mcu_fd_io__cor_3/VDD gf180mcu_fd_io__cor_3/VSS gf180mcu_fd_io__cor_3/VDD gf180mcu_fd_io__cor_3/VSS
+ gf180mcu_fd_io__fill10
Xgf180mcu_fd_io__fill10_706 gf180mcu_fd_io__cor_3/VDD gf180mcu_fd_io__cor_3/VSS gf180mcu_fd_io__cor_3/VDD gf180mcu_fd_io__cor_3/VSS
+ gf180mcu_fd_io__fill10
Xgf180mcu_fd_io__fill10_717 gf180mcu_fd_io__cor_3/VDD gf180mcu_fd_io__cor_3/VSS gf180mcu_fd_io__cor_3/VDD gf180mcu_fd_io__cor_3/VSS
+ gf180mcu_fd_io__fill10
Xgf180mcu_fd_io__fill10_728 gf180mcu_fd_io__cor_3/VDD gf180mcu_fd_io__cor_3/VSS gf180mcu_fd_io__cor_3/VDD gf180mcu_fd_io__cor_3/VSS
+ gf180mcu_fd_io__fill10
Xgf180mcu_fd_io__fill10_739 gf180mcu_fd_io__cor_3/VDD gf180mcu_fd_io__cor_3/VSS gf180mcu_fd_io__cor_3/VDD gf180mcu_fd_io__cor_3/VSS
+ gf180mcu_fd_io__fill10
Xgf180mcu_fd_io__fill10_514 gf180mcu_fd_io__cor_3/VDD gf180mcu_fd_io__cor_3/VSS gf180mcu_fd_io__cor_3/VDD gf180mcu_fd_io__cor_3/VSS
+ gf180mcu_fd_io__fill10
Xgf180mcu_fd_io__fill10_525 gf180mcu_fd_io__cor_3/VDD gf180mcu_fd_io__cor_3/VSS gf180mcu_fd_io__cor_3/VDD gf180mcu_fd_io__cor_3/VSS
+ gf180mcu_fd_io__fill10
Xgf180mcu_fd_io__fill10_536 gf180mcu_fd_io__cor_3/VDD gf180mcu_fd_io__cor_3/VSS gf180mcu_fd_io__cor_3/VDD gf180mcu_fd_io__cor_3/VSS
+ gf180mcu_fd_io__fill10
Xgf180mcu_fd_io__fill10_547 gf180mcu_fd_io__cor_3/VDD gf180mcu_fd_io__cor_3/VSS gf180mcu_fd_io__cor_3/VDD gf180mcu_fd_io__cor_3/VSS
+ gf180mcu_fd_io__fill10
Xgf180mcu_fd_io__fill10_558 gf180mcu_fd_io__cor_3/VDD gf180mcu_fd_io__cor_3/VSS gf180mcu_fd_io__cor_3/VDD gf180mcu_fd_io__cor_3/VSS
+ gf180mcu_fd_io__fill10
Xgf180mcu_fd_io__fill10_569 gf180mcu_fd_io__cor_3/VDD gf180mcu_fd_io__cor_3/VSS gf180mcu_fd_io__cor_3/VDD gf180mcu_fd_io__cor_3/VSS
+ gf180mcu_fd_io__fill10
Xgf180mcu_fd_io__fill10_503 gf180mcu_fd_io__cor_3/VDD gf180mcu_fd_io__cor_3/VSS gf180mcu_fd_io__cor_3/VDD gf180mcu_fd_io__cor_3/VSS
+ gf180mcu_fd_io__fill10
Xgf180mcu_fd_io__fill10_95 gf180mcu_fd_io__cor_3/VDD gf180mcu_fd_io__cor_3/VSS gf180mcu_fd_io__cor_3/VDD gf180mcu_fd_io__cor_3/VSS gf180mcu_fd_io__fill10
Xgf180mcu_fd_io__fill10_84 gf180mcu_fd_io__cor_3/VDD gf180mcu_fd_io__cor_3/VSS gf180mcu_fd_io__cor_3/VDD gf180mcu_fd_io__cor_3/VSS gf180mcu_fd_io__fill10
Xgf180mcu_fd_io__fill10_73 gf180mcu_fd_io__cor_3/VDD gf180mcu_fd_io__cor_3/VSS gf180mcu_fd_io__cor_3/VDD gf180mcu_fd_io__cor_3/VSS gf180mcu_fd_io__fill10
Xgf180mcu_fd_io__fill10_62 gf180mcu_fd_io__cor_3/VDD gf180mcu_fd_io__cor_3/VSS gf180mcu_fd_io__cor_3/VDD gf180mcu_fd_io__cor_3/VSS gf180mcu_fd_io__fill10
Xgf180mcu_fd_io__fill10_51 gf180mcu_fd_io__cor_3/VDD gf180mcu_fd_io__cor_3/VSS gf180mcu_fd_io__cor_3/VDD gf180mcu_fd_io__cor_3/VSS gf180mcu_fd_io__fill10
Xgf180mcu_fd_io__fill10_40 gf180mcu_fd_io__cor_3/VDD gf180mcu_fd_io__cor_3/VSS gf180mcu_fd_io__cor_3/VDD gf180mcu_fd_io__cor_3/VSS gf180mcu_fd_io__fill10
Xgf180mcu_fd_io__fill10_399 gf180mcu_fd_io__cor_3/VDD gf180mcu_fd_io__cor_3/VSS gf180mcu_fd_io__cor_3/VDD gf180mcu_fd_io__cor_3/VSS
+ gf180mcu_fd_io__fill10
Xgf180mcu_fd_io__fill10_388 gf180mcu_fd_io__cor_3/VDD gf180mcu_fd_io__cor_3/VSS gf180mcu_fd_io__cor_3/VDD gf180mcu_fd_io__cor_3/VSS
+ gf180mcu_fd_io__fill10
Xgf180mcu_fd_io__fill10_377 gf180mcu_fd_io__cor_3/VDD gf180mcu_fd_io__cor_3/VSS gf180mcu_fd_io__cor_3/VDD gf180mcu_fd_io__cor_3/VSS
+ gf180mcu_fd_io__fill10
Xgf180mcu_fd_io__fill10_366 gf180mcu_fd_io__cor_3/VDD gf180mcu_fd_io__cor_3/VSS gf180mcu_fd_io__cor_3/VDD gf180mcu_fd_io__cor_3/VSS
+ gf180mcu_fd_io__fill10
Xgf180mcu_fd_io__fill10_355 gf180mcu_fd_io__cor_3/VDD gf180mcu_fd_io__cor_3/VSS gf180mcu_fd_io__cor_3/VDD gf180mcu_fd_io__cor_3/VSS
+ gf180mcu_fd_io__fill10
Xgf180mcu_fd_io__fill10_344 gf180mcu_fd_io__cor_3/VDD gf180mcu_fd_io__cor_3/VSS gf180mcu_fd_io__cor_3/VDD gf180mcu_fd_io__cor_3/VSS
+ gf180mcu_fd_io__fill10
Xgf180mcu_fd_io__fill10_333 gf180mcu_fd_io__cor_3/VDD gf180mcu_fd_io__cor_3/VSS gf180mcu_fd_io__cor_3/VDD gf180mcu_fd_io__cor_3/VSS
+ gf180mcu_fd_io__fill10
Xgf180mcu_fd_io__fill10_322 gf180mcu_fd_io__cor_3/VDD gf180mcu_fd_io__cor_3/VSS gf180mcu_fd_io__cor_3/VDD gf180mcu_fd_io__cor_3/VSS
+ gf180mcu_fd_io__fill10
Xgf180mcu_fd_io__fill10_311 gf180mcu_fd_io__cor_3/VDD gf180mcu_fd_io__cor_3/VSS gf180mcu_fd_io__cor_3/VDD gf180mcu_fd_io__cor_3/VSS
+ gf180mcu_fd_io__fill10
Xgf180mcu_fd_io__fill10_300 gf180mcu_fd_io__cor_3/VDD gf180mcu_fd_io__cor_3/VSS gf180mcu_fd_io__cor_3/VDD gf180mcu_fd_io__cor_3/VSS
+ gf180mcu_fd_io__fill10
Xgf180mcu_fd_io__fill10_130 gf180mcu_fd_io__cor_3/VDD gf180mcu_fd_io__cor_3/VSS gf180mcu_fd_io__cor_3/VDD gf180mcu_fd_io__cor_3/VSS
+ gf180mcu_fd_io__fill10
Xgf180mcu_fd_io__fill10_141 gf180mcu_fd_io__cor_3/VDD gf180mcu_fd_io__cor_3/VSS gf180mcu_fd_io__cor_3/VDD gf180mcu_fd_io__cor_3/VSS
+ gf180mcu_fd_io__fill10
Xgf180mcu_fd_io__fill10_152 gf180mcu_fd_io__cor_3/VDD gf180mcu_fd_io__cor_3/VSS gf180mcu_fd_io__cor_3/VDD gf180mcu_fd_io__cor_3/VSS
+ gf180mcu_fd_io__fill10
Xgf180mcu_fd_io__fill10_163 gf180mcu_fd_io__cor_3/VDD gf180mcu_fd_io__cor_3/VSS gf180mcu_fd_io__cor_3/VDD gf180mcu_fd_io__cor_3/VSS
+ gf180mcu_fd_io__fill10
Xgf180mcu_fd_io__fill10_174 gf180mcu_fd_io__cor_3/VDD gf180mcu_fd_io__cor_3/VSS gf180mcu_fd_io__cor_3/VDD gf180mcu_fd_io__cor_3/VSS
+ gf180mcu_fd_io__fill10
Xgf180mcu_fd_io__fill10_185 gf180mcu_fd_io__cor_3/VDD gf180mcu_fd_io__cor_3/VSS gf180mcu_fd_io__cor_3/VDD gf180mcu_fd_io__cor_3/VSS
+ gf180mcu_fd_io__fill10
Xgf180mcu_fd_io__fill10_196 gf180mcu_fd_io__cor_3/VDD gf180mcu_fd_io__cor_3/VSS gf180mcu_fd_io__cor_3/VDD gf180mcu_fd_io__cor_3/VSS
+ gf180mcu_fd_io__fill10
Xgf180mcu_fd_io__fill10_707 gf180mcu_fd_io__cor_3/VDD gf180mcu_fd_io__cor_3/VSS gf180mcu_fd_io__cor_3/VDD gf180mcu_fd_io__cor_3/VSS
+ gf180mcu_fd_io__fill10
Xgf180mcu_fd_io__fill10_718 gf180mcu_fd_io__cor_3/VDD gf180mcu_fd_io__cor_3/VSS gf180mcu_fd_io__cor_3/VDD gf180mcu_fd_io__cor_3/VSS
+ gf180mcu_fd_io__fill10
Xgf180mcu_fd_io__fill10_729 gf180mcu_fd_io__cor_3/VDD gf180mcu_fd_io__cor_3/VSS gf180mcu_fd_io__cor_3/VDD gf180mcu_fd_io__cor_3/VSS
+ gf180mcu_fd_io__fill10
Xgf180mcu_fd_io__fill10_515 gf180mcu_fd_io__cor_3/VDD gf180mcu_fd_io__cor_3/VSS gf180mcu_fd_io__cor_3/VDD gf180mcu_fd_io__cor_3/VSS
+ gf180mcu_fd_io__fill10
Xgf180mcu_fd_io__fill10_526 gf180mcu_fd_io__cor_3/VDD gf180mcu_fd_io__cor_3/VSS gf180mcu_fd_io__cor_3/VDD gf180mcu_fd_io__cor_3/VSS
+ gf180mcu_fd_io__fill10
Xgf180mcu_fd_io__fill10_537 gf180mcu_fd_io__cor_3/VDD gf180mcu_fd_io__cor_3/VSS gf180mcu_fd_io__cor_3/VDD gf180mcu_fd_io__cor_3/VSS
+ gf180mcu_fd_io__fill10
Xgf180mcu_fd_io__fill10_504 gf180mcu_fd_io__cor_3/VDD gf180mcu_fd_io__cor_3/VSS gf180mcu_fd_io__cor_3/VDD gf180mcu_fd_io__cor_3/VSS
+ gf180mcu_fd_io__fill10
Xgf180mcu_fd_io__fill10_548 gf180mcu_fd_io__cor_3/VDD gf180mcu_fd_io__cor_3/VSS gf180mcu_fd_io__cor_3/VDD gf180mcu_fd_io__cor_3/VSS
+ gf180mcu_fd_io__fill10
Xgf180mcu_fd_io__fill10_559 gf180mcu_fd_io__cor_3/VDD gf180mcu_fd_io__cor_3/VSS gf180mcu_fd_io__cor_3/VDD gf180mcu_fd_io__cor_3/VSS
+ gf180mcu_fd_io__fill10
Xgf180mcu_fd_io__fill10_96 gf180mcu_fd_io__cor_3/VDD gf180mcu_fd_io__cor_3/VSS gf180mcu_fd_io__cor_3/VDD gf180mcu_fd_io__cor_3/VSS gf180mcu_fd_io__fill10
Xgf180mcu_fd_io__fill10_85 gf180mcu_fd_io__cor_3/VDD gf180mcu_fd_io__cor_3/VSS gf180mcu_fd_io__cor_3/VDD gf180mcu_fd_io__cor_3/VSS gf180mcu_fd_io__fill10
Xgf180mcu_fd_io__fill10_74 gf180mcu_fd_io__cor_3/VDD gf180mcu_fd_io__cor_3/VSS gf180mcu_fd_io__cor_3/VDD gf180mcu_fd_io__cor_3/VSS gf180mcu_fd_io__fill10
Xgf180mcu_fd_io__fill10_63 gf180mcu_fd_io__cor_3/VDD gf180mcu_fd_io__cor_3/VSS gf180mcu_fd_io__cor_3/VDD gf180mcu_fd_io__cor_3/VSS gf180mcu_fd_io__fill10
Xgf180mcu_fd_io__fill10_52 gf180mcu_fd_io__cor_3/VDD gf180mcu_fd_io__cor_3/VSS gf180mcu_fd_io__cor_3/VDD gf180mcu_fd_io__cor_3/VSS gf180mcu_fd_io__fill10
Xgf180mcu_fd_io__fill10_41 gf180mcu_fd_io__cor_3/VDD gf180mcu_fd_io__cor_3/VSS gf180mcu_fd_io__cor_3/VDD gf180mcu_fd_io__cor_3/VSS gf180mcu_fd_io__fill10
Xgf180mcu_fd_io__fill10_30 gf180mcu_fd_io__cor_3/VDD gf180mcu_fd_io__cor_3/VSS gf180mcu_fd_io__cor_3/VDD gf180mcu_fd_io__cor_3/VSS gf180mcu_fd_io__fill10
Xgf180mcu_fd_io__fill10_389 gf180mcu_fd_io__cor_3/VDD gf180mcu_fd_io__cor_3/VSS gf180mcu_fd_io__cor_3/VDD gf180mcu_fd_io__cor_3/VSS
+ gf180mcu_fd_io__fill10
Xgf180mcu_fd_io__fill10_378 gf180mcu_fd_io__cor_3/VDD gf180mcu_fd_io__cor_3/VSS gf180mcu_fd_io__cor_3/VDD gf180mcu_fd_io__cor_3/VSS
+ gf180mcu_fd_io__fill10
Xgf180mcu_fd_io__fill10_367 gf180mcu_fd_io__cor_3/VDD gf180mcu_fd_io__cor_3/VSS gf180mcu_fd_io__cor_3/VDD gf180mcu_fd_io__cor_3/VSS
+ gf180mcu_fd_io__fill10
Xgf180mcu_fd_io__fill10_356 gf180mcu_fd_io__cor_3/VDD gf180mcu_fd_io__cor_3/VSS gf180mcu_fd_io__cor_3/VDD gf180mcu_fd_io__cor_3/VSS
+ gf180mcu_fd_io__fill10
Xgf180mcu_fd_io__fill10_345 gf180mcu_fd_io__cor_3/VDD gf180mcu_fd_io__cor_3/VSS gf180mcu_fd_io__cor_3/VDD gf180mcu_fd_io__cor_3/VSS
+ gf180mcu_fd_io__fill10
Xgf180mcu_fd_io__fill10_334 gf180mcu_fd_io__cor_3/VDD gf180mcu_fd_io__cor_3/VSS gf180mcu_fd_io__cor_3/VDD gf180mcu_fd_io__cor_3/VSS
+ gf180mcu_fd_io__fill10
Xgf180mcu_fd_io__fill10_323 gf180mcu_fd_io__cor_3/VDD gf180mcu_fd_io__cor_3/VSS gf180mcu_fd_io__cor_3/VDD gf180mcu_fd_io__cor_3/VSS
+ gf180mcu_fd_io__fill10
Xgf180mcu_fd_io__fill10_312 gf180mcu_fd_io__cor_3/VDD gf180mcu_fd_io__cor_3/VSS gf180mcu_fd_io__cor_3/VDD gf180mcu_fd_io__cor_3/VSS
+ gf180mcu_fd_io__fill10
Xgf180mcu_fd_io__fill10_301 gf180mcu_fd_io__cor_3/VDD gf180mcu_fd_io__cor_3/VSS gf180mcu_fd_io__cor_3/VDD gf180mcu_fd_io__cor_3/VSS
+ gf180mcu_fd_io__fill10
Xgf180mcu_fd_io__fill10_890 gf180mcu_fd_io__cor_3/VDD gf180mcu_fd_io__cor_3/VSS gf180mcu_fd_io__cor_3/VDD gf180mcu_fd_io__cor_3/VSS
+ gf180mcu_fd_io__fill10
Xgf180mcu_fd_io__fill10_120 gf180mcu_fd_io__cor_3/VDD gf180mcu_fd_io__cor_3/VSS gf180mcu_fd_io__cor_3/VDD gf180mcu_fd_io__cor_3/VSS
+ gf180mcu_fd_io__fill10
Xgf180mcu_fd_io__fill10_131 gf180mcu_fd_io__cor_3/VDD gf180mcu_fd_io__cor_3/VSS gf180mcu_fd_io__cor_3/VDD gf180mcu_fd_io__cor_3/VSS
+ gf180mcu_fd_io__fill10
Xgf180mcu_fd_io__fill10_142 gf180mcu_fd_io__cor_3/VDD gf180mcu_fd_io__cor_3/VSS gf180mcu_fd_io__cor_3/VDD gf180mcu_fd_io__cor_3/VSS
+ gf180mcu_fd_io__fill10
Xgf180mcu_fd_io__fill10_153 gf180mcu_fd_io__cor_3/VDD gf180mcu_fd_io__cor_3/VSS gf180mcu_fd_io__cor_3/VDD gf180mcu_fd_io__cor_3/VSS
+ gf180mcu_fd_io__fill10
Xgf180mcu_fd_io__fill10_164 gf180mcu_fd_io__cor_3/VDD gf180mcu_fd_io__cor_3/VSS gf180mcu_fd_io__cor_3/VDD gf180mcu_fd_io__cor_3/VSS
+ gf180mcu_fd_io__fill10
Xgf180mcu_fd_io__fill10_175 gf180mcu_fd_io__cor_3/VDD gf180mcu_fd_io__cor_3/VSS gf180mcu_fd_io__cor_3/VDD gf180mcu_fd_io__cor_3/VSS
+ gf180mcu_fd_io__fill10
Xgf180mcu_fd_io__fill10_186 gf180mcu_fd_io__cor_3/VDD gf180mcu_fd_io__cor_3/VSS gf180mcu_fd_io__cor_3/VDD gf180mcu_fd_io__cor_3/VSS
+ gf180mcu_fd_io__fill10
Xgf180mcu_fd_io__fill10_197 gf180mcu_fd_io__cor_3/VDD gf180mcu_fd_io__cor_3/VSS gf180mcu_fd_io__cor_3/VDD gf180mcu_fd_io__cor_3/VSS
+ gf180mcu_fd_io__fill10
Xgf180mcu_fd_io__fill10_708 gf180mcu_fd_io__cor_3/VDD gf180mcu_fd_io__cor_3/VSS gf180mcu_fd_io__cor_3/VDD gf180mcu_fd_io__cor_3/VSS
+ gf180mcu_fd_io__fill10
Xgf180mcu_fd_io__fill10_719 gf180mcu_fd_io__cor_3/VDD gf180mcu_fd_io__cor_3/VSS gf180mcu_fd_io__cor_3/VDD gf180mcu_fd_io__cor_3/VSS
+ gf180mcu_fd_io__fill10
Xgf180mcu_fd_io__fill10_516 gf180mcu_fd_io__cor_3/VDD gf180mcu_fd_io__cor_3/VSS gf180mcu_fd_io__cor_3/VDD gf180mcu_fd_io__cor_3/VSS
+ gf180mcu_fd_io__fill10
Xgf180mcu_fd_io__fill10_527 gf180mcu_fd_io__cor_3/VDD gf180mcu_fd_io__cor_3/VSS gf180mcu_fd_io__cor_3/VDD gf180mcu_fd_io__cor_3/VSS
+ gf180mcu_fd_io__fill10
Xgf180mcu_fd_io__fill10_538 gf180mcu_fd_io__cor_3/VDD gf180mcu_fd_io__cor_3/VSS gf180mcu_fd_io__cor_3/VDD gf180mcu_fd_io__cor_3/VSS
+ gf180mcu_fd_io__fill10
Xgf180mcu_fd_io__fill10_549 gf180mcu_fd_io__cor_3/VDD gf180mcu_fd_io__cor_3/VSS gf180mcu_fd_io__cor_3/VDD gf180mcu_fd_io__cor_3/VSS
+ gf180mcu_fd_io__fill10
Xgf180mcu_fd_io__fill10_505 gf180mcu_fd_io__cor_3/VDD gf180mcu_fd_io__cor_3/VSS gf180mcu_fd_io__cor_3/VDD gf180mcu_fd_io__cor_3/VSS
+ gf180mcu_fd_io__fill10
Xgf180mcu_fd_io__fill10_97 gf180mcu_fd_io__cor_3/VDD gf180mcu_fd_io__cor_3/VSS gf180mcu_fd_io__cor_3/VDD gf180mcu_fd_io__cor_3/VSS gf180mcu_fd_io__fill10
Xgf180mcu_fd_io__fill10_86 gf180mcu_fd_io__cor_3/VDD gf180mcu_fd_io__cor_3/VSS gf180mcu_fd_io__cor_3/VDD gf180mcu_fd_io__cor_3/VSS gf180mcu_fd_io__fill10
Xgf180mcu_fd_io__fill10_75 gf180mcu_fd_io__cor_3/VDD gf180mcu_fd_io__cor_3/VSS gf180mcu_fd_io__cor_3/VDD gf180mcu_fd_io__cor_3/VSS gf180mcu_fd_io__fill10
Xgf180mcu_fd_io__fill10_64 gf180mcu_fd_io__cor_3/VDD gf180mcu_fd_io__cor_3/VSS gf180mcu_fd_io__cor_3/VDD gf180mcu_fd_io__cor_3/VSS gf180mcu_fd_io__fill10
Xgf180mcu_fd_io__fill10_53 gf180mcu_fd_io__cor_3/VDD gf180mcu_fd_io__cor_3/VSS gf180mcu_fd_io__cor_3/VDD gf180mcu_fd_io__cor_3/VSS gf180mcu_fd_io__fill10
Xgf180mcu_fd_io__fill10_42 gf180mcu_fd_io__cor_3/VDD gf180mcu_fd_io__cor_3/VSS gf180mcu_fd_io__cor_3/VDD gf180mcu_fd_io__cor_3/VSS gf180mcu_fd_io__fill10
Xgf180mcu_fd_io__fill10_31 gf180mcu_fd_io__cor_3/VDD gf180mcu_fd_io__cor_3/VSS gf180mcu_fd_io__cor_3/VDD gf180mcu_fd_io__cor_3/VSS gf180mcu_fd_io__fill10
Xgf180mcu_fd_io__fill10_20 gf180mcu_fd_io__cor_3/VDD gf180mcu_fd_io__cor_3/VSS gf180mcu_fd_io__cor_3/VDD gf180mcu_fd_io__cor_3/VSS gf180mcu_fd_io__fill10
Xgf180mcu_fd_io__fill10_379 gf180mcu_fd_io__cor_3/VDD gf180mcu_fd_io__cor_3/VSS gf180mcu_fd_io__cor_3/VDD gf180mcu_fd_io__cor_3/VSS
+ gf180mcu_fd_io__fill10
Xgf180mcu_fd_io__fill10_368 gf180mcu_fd_io__cor_3/VDD gf180mcu_fd_io__cor_3/VSS gf180mcu_fd_io__cor_3/VDD gf180mcu_fd_io__cor_3/VSS
+ gf180mcu_fd_io__fill10
Xgf180mcu_fd_io__fill10_357 gf180mcu_fd_io__cor_3/VDD gf180mcu_fd_io__cor_3/VSS gf180mcu_fd_io__cor_3/VDD gf180mcu_fd_io__cor_3/VSS
+ gf180mcu_fd_io__fill10
Xgf180mcu_fd_io__fill10_346 gf180mcu_fd_io__cor_3/VDD gf180mcu_fd_io__cor_3/VSS gf180mcu_fd_io__cor_3/VDD gf180mcu_fd_io__cor_3/VSS
+ gf180mcu_fd_io__fill10
Xgf180mcu_fd_io__fill10_335 gf180mcu_fd_io__cor_3/VDD gf180mcu_fd_io__cor_3/VSS gf180mcu_fd_io__cor_3/VDD gf180mcu_fd_io__cor_3/VSS
+ gf180mcu_fd_io__fill10
Xgf180mcu_fd_io__fill10_324 gf180mcu_fd_io__cor_3/VDD gf180mcu_fd_io__cor_3/VSS gf180mcu_fd_io__cor_3/VDD gf180mcu_fd_io__cor_3/VSS
+ gf180mcu_fd_io__fill10