*SPEF "IEEE 1481-1999"
*DESIGN "user_id_programming"
*DATE "Tue Dec  6 03:35:38 2022"
*VENDOR "Synopsys Inc."
*PROGRAM "StarRC"
*VERSION "T-2022.03-SP3"
*DESIGN_FLOW "PIN_CAP NONE" "NAME_SCOPE LOCAL"
*DIVIDER /
*DELIMITER :
*BUS_DELIMITER ()
*T_UNIT 1.0 NS
*C_UNIT 1.0 FF
*R_UNIT 1.0 OHM
*L_UNIT 1.0 HENRY

// COMMENTS

// CORNER_NAME 
// OPERATING_TEMPERATURE 25
// GLOBAL_TEMPERATURE 25
// TCAD_GRD_FILE /home/passant/gf180_timing/caravel-gf180mcu/scripts/gf180-tech/gf180mcu_1p5m_1tm_9k_sp_smim_OPTB_typ.nxtgrd
//   TCAD_TIME_STAMP Tue Dec 26 17:52:29 2017
//   TCADGRD_VERSION 75
// galaxy_comments_begin
//   local_nodeid
// galaxy_comments_end

*NAME_MAP
*68 mask_rev\[0\]
*69 mask_rev\[1\]
*70 mask_rev\[2\]
*71 mask_rev\[3\]
*72 mask_rev\[4\]
*73 mask_rev\[5\]
*74 mask_rev\[6\]
*75 mask_rev\[7\]
*76 mask_rev\[8\]
*77 mask_rev\[9\]
*78 mask_rev\[10\]
*79 mask_rev\[11\]
*80 mask_rev\[12\]
*81 mask_rev\[13\]
*82 mask_rev\[14\]
*83 mask_rev\[15\]
*84 mask_rev\[16\]
*85 mask_rev\[17\]
*86 mask_rev\[18\]
*87 mask_rev\[19\]
*88 mask_rev\[20\]
*89 mask_rev\[21\]
*90 mask_rev\[22\]
*91 mask_rev\[23\]
*92 mask_rev\[24\]
*93 mask_rev\[25\]
*94 mask_rev\[26\]
*95 mask_rev\[27\]
*96 mask_rev\[28\]
*97 mask_rev\[29\]
*98 mask_rev\[30\]
*99 mask_rev\[31\]
*100 mask_rev_value_one\[0\]
*101 mask_rev_value_one\[10\]
*102 mask_rev_value_one\[11\]
*103 mask_rev_value_one\[12\]
*104 mask_rev_value_one\[13\]
*105 mask_rev_value_one\[14\]
*106 mask_rev_value_one\[15\]
*107 mask_rev_value_one\[16\]
*108 mask_rev_value_one\[17\]
*109 mask_rev_value_one\[18\]
*110 mask_rev_value_one\[19\]
*111 mask_rev_value_one\[1\]
*112 mask_rev_value_one\[20\]
*113 mask_rev_value_one\[21\]
*114 mask_rev_value_one\[22\]
*115 mask_rev_value_one\[23\]
*116 mask_rev_value_one\[24\]
*117 mask_rev_value_one\[25\]
*118 mask_rev_value_one\[26\]
*119 mask_rev_value_one\[27\]
*120 mask_rev_value_one\[28\]
*121 mask_rev_value_one\[29\]
*122 mask_rev_value_one\[2\]
*123 mask_rev_value_one\[30\]
*124 mask_rev_value_one\[31\]
*125 mask_rev_value_one\[3\]
*126 mask_rev_value_one\[4\]
*127 mask_rev_value_one\[5\]
*128 mask_rev_value_one\[6\]
*129 mask_rev_value_one\[7\]
*130 mask_rev_value_one\[8\]
*131 mask_rev_value_one\[9\]
*132 mask_rev_value_zero\[0\]
*133 mask_rev_value_zero\[10\]
*134 mask_rev_value_zero\[11\]
*135 mask_rev_value_zero\[12\]
*136 mask_rev_value_zero\[13\]
*137 mask_rev_value_zero\[14\]
*138 mask_rev_value_zero\[15\]
*139 mask_rev_value_zero\[16\]
*140 mask_rev_value_zero\[17\]
*141 mask_rev_value_zero\[18\]
*142 mask_rev_value_zero\[19\]
*143 mask_rev_value_zero\[1\]
*144 mask_rev_value_zero\[20\]
*145 mask_rev_value_zero\[21\]
*146 mask_rev_value_zero\[22\]
*147 mask_rev_value_zero\[23\]
*148 mask_rev_value_zero\[24\]
*149 mask_rev_value_zero\[25\]
*150 mask_rev_value_zero\[26\]
*151 mask_rev_value_zero\[27\]
*152 mask_rev_value_zero\[28\]
*153 mask_rev_value_zero\[29\]
*154 mask_rev_value_zero\[2\]
*155 mask_rev_value_zero\[30\]
*156 mask_rev_value_zero\[31\]
*157 mask_rev_value_zero\[3\]
*158 mask_rev_value_zero\[4\]
*159 mask_rev_value_zero\[5\]
*160 mask_rev_value_zero\[6\]
*161 mask_rev_value_zero\[7\]
*162 mask_rev_value_zero\[8\]
*163 mask_rev_value_zero\[9\]
*3 mask_rev\[0\]
*4 mask_rev\[1\]
*5 mask_rev\[2\]
*6 mask_rev\[3\]
*7 mask_rev\[4\]
*8 mask_rev\[5\]
*9 mask_rev\[6\]
*10 mask_rev\[7\]
*11 mask_rev\[8\]
*12 mask_rev\[9\]
*13 mask_rev\[10\]
*14 mask_rev\[11\]
*15 mask_rev\[12\]
*16 mask_rev\[13\]
*17 mask_rev\[14\]
*18 mask_rev\[15\]
*19 mask_rev\[16\]
*20 mask_rev\[17\]
*21 mask_rev\[18\]
*22 mask_rev\[19\]
*23 mask_rev\[20\]
*24 mask_rev\[21\]
*25 mask_rev\[22\]
*26 mask_rev\[23\]
*27 mask_rev\[24\]
*28 mask_rev\[25\]
*29 mask_rev\[26\]
*30 mask_rev\[27\]
*31 mask_rev\[28\]
*32 mask_rev\[29\]
*33 mask_rev\[30\]
*34 mask_rev\[31\]
*36 user_proj_id_nc\[0\]
*37 user_proj_id_nc\[10\]
*38 user_proj_id_nc\[11\]
*39 user_proj_id_nc\[12\]
*40 user_proj_id_nc\[13\]
*41 user_proj_id_nc\[14\]
*42 user_proj_id_nc\[15\]
*43 user_proj_id_nc\[16\]
*44 user_proj_id_nc\[17\]
*45 user_proj_id_nc\[18\]
*46 user_proj_id_nc\[19\]
*47 user_proj_id_nc\[1\]
*48 user_proj_id_nc\[20\]
*49 user_proj_id_nc\[21\]
*50 user_proj_id_nc\[22\]
*51 user_proj_id_nc\[23\]
*52 user_proj_id_nc\[24\]
*53 user_proj_id_nc\[25\]
*54 user_proj_id_nc\[26\]
*55 user_proj_id_nc\[27\]
*56 user_proj_id_nc\[28\]
*57 user_proj_id_nc\[29\]
*58 user_proj_id_nc\[2\]
*59 user_proj_id_nc\[30\]
*60 user_proj_id_nc\[31\]
*61 user_proj_id_nc\[3\]
*62 user_proj_id_nc\[4\]
*63 user_proj_id_nc\[5\]
*64 user_proj_id_nc\[6\]
*65 user_proj_id_nc\[7\]
*66 user_proj_id_nc\[8\]
*67 user_proj_id_nc\[9\]

*PORTS

*68 B
*69 B
*70 B
*71 B
*72 B
*73 B
*74 B
*75 B
*76 B
*77 B
*78 B
*79 B
*80 B
*81 B
*82 B
*83 B
*84 B
*85 B
*86 B
*87 B
*88 B
*89 B
*90 B
*91 B
*92 B
*93 B
*94 B
*95 B
*96 B
*97 B
*98 B
*99 B

*D_NET *3 2.28414

*CONN
*P *68 B *C 0.2800 -1.0750
*I *132:ZN O *C 9.2400 6.4400 *D gf180mcu_fd_sc_mcu7t5v0__tiel

*CAP
1 *3:2 *4:2 0.222157
2 *3:2 *5:2 0.00419319
3 *3:2 *100:Z 0.0438793
4 *3:2 *111:Z 0.00464675
5 *68 0.233416
6 *132:ZN 0.100249
7 *3:2 1.41546
8 *3:3 0.117688
9 *3:4 0.142451
10 *3:5 0.0

*RES
1 *68 *3:2 2.74018
2 *132:ZN *3:2 6.89585
3 *132:ZN *3:5 0.001
4 *132:ZN *3:3 0.001
5 *3:3 *3:4 0.276288
*END

*D_NET *4 1.46065

*CONN
*P *69 B *C 3.6400 -1.0750
*I *143:ZN O *C 9.2400 1.4000 *D gf180mcu_fd_sc_mcu7t5v0__tiel

*CAP
1 *4:2 *3:2 0.222157
2 *4:2 *5:2 0.180236
3 *4:2 *111:Z 0.0266816
4 *69 0.295587
5 *4:2 0.479525
6 *4:3 0.132309
7 *4:4 0.124149
8 *4:5 0.0

*RES
1 *69 *4:2 0.789108
2 *143:ZN *4:2 6.075
3 *143:ZN *4:5 0.001
4 *143:ZN *4:4 0.001
5 *4:3 *4:4 0.283788
*END

*D_NET *5 2.58777

*CONN
*P *70 B *C 7.5600 -1.0750
*I *154:ZN O *C 15.9600 6.4400 *D gf180mcu_fd_sc_mcu7t5v0__tiel

*CAP
1 *5:2 *3:2 0.00419319
2 *5:2 *4:2 0.180236
3 *5:2 *71 0.225796
4 *5:2 *6:6 0.0169146
5 *5:2 *7:2 0.0703202
6 *5:2 *111:Z 0.00438776
7 *5:2 *122:Z 0.0414025
8 *70 0.252421
9 *154:ZN 0.0991127
10 *5:2 1.43475
11 *5:3 0.116215
12 *5:4 0.14202
13 *5:5 0.0

*RES
1 *70 *5:2 1.97036
2 *154:ZN *5:5 0.001
3 *154:ZN *5:2 7.47422
4 *154:ZN *5:3 0.001
5 *5:3 *5:4 0.276288
*END

*D_NET *6 1.50122

*CONN
*P *71 B *C 11.0600 -0.0700
*I *157:ZN O *C 15.9600 1.4000 *D gf180mcu_fd_sc_mcu7t5v0__tiel

*CAP
1 *71 *5:2 0.225796
2 *6:6 *5:2 0.0169146
3 *71 *72 0.116126
4 *71 *7:2 0.124672
5 *6:6 *72 0.0315788
6 *71 *125:Z 0.037639
7 *71 0.254434
8 *6:2 0.31708
9 *6:3 0.122392
10 *6:4 0.123207
11 *6:6 0.131377

*RES
1 *71 *6:2 1.05911
2 *71 *6:6 0.001
3 *157:ZN *6:2 5.36485
4 *157:ZN *6:5 0.001
5 *157:ZN *6:4 0.001
6 *6:3 *6:4 0.283788
*END

*D_NET *7 2.11485

*CONN
*P *72 B *C 14.2800 -1.0750
*I *158:ZN O *C 21.5600 6.4400 *D gf180mcu_fd_sc_mcu7t5v0__tiel

*CAP
1 *7:2 *5:2 0.0703202
2 *72 *71 0.116126
3 *7:2 *71 0.124672
4 *72 *6:6 0.0315788
5 *72 *8:2 0.0424593
6 *7:2 *8:2 0.138991
7 *7:2 *9:2 0.0329699
8 *7:2 *126:Z 0.0194349
9 *72 0.0399598
10 *158:ZN 0.144516
11 *7:2 1.09409
12 *7:3 0.117688
13 *7:4 0.142044
14 *7:5 0.0

*RES
1 *72 *7:2 1.16839
2 *158:ZN *7:2 7.88706
3 *158:ZN *7:5 0.001
4 *158:ZN *7:3 0.001
5 *7:3 *7:4 0.276288
*END

*D_NET *8 1.1622

*CONN
*P *73 B *C 17.6400 -1.0750
*I *159:ZN O *C 21.5600 1.4000 *D gf180mcu_fd_sc_mcu7t5v0__tiel

*CAP
1 *8:2 *72 0.0424593
2 *8:2 *7:2 0.138991
3 *8:2 *74 0.116231
4 *8:2 *9:2 0.0231613
5 *8:2 *127:Z 0.0500958
6 *73 0.262693
7 *8:2 0.276875
8 *8:3 0.127666
9 *8:4 0.124027
10 *8:5 0.0

*RES
1 *73 *8:2 0.789108
2 *159:ZN *8:5 0.001
3 *159:ZN *8:4 0.001
4 *159:ZN *8:2 5.6025
5 *8:3 *8:4 0.283788
*END

*D_NET *9 2.00364

*CONN
*P *74 B *C 21.0000 -1.0750
*I *160:ZN O *C 28.2800 6.4400 *D gf180mcu_fd_sc_mcu7t5v0__tiel

*CAP
1 *9:2 *7:2 0.0329699
2 *74 *8:2 0.116231
3 *9:2 *8:2 0.0231613
4 *74 *10:2 0.0379878
5 *9:2 *10:2 0.0207206
6 *9:2 *11:2 0.04319
7 *9:2 *128:Z 0.0521103
8 *74 0.0599076
9 *160:ZN 0.125689
10 *9:2 1.22385
11 *9:3 0.125799
12 *9:4 0.14202
13 *9:5 0.0

*RES
1 *74 *9:2 1.44
2 *160:ZN *9:2 7.63212
3 *160:ZN *9:5 0.001
4 *160:ZN *9:3 0.001
5 *9:3 *9:4 0.276288
*END

*D_NET *10 1.11075

*CONN
*P *75 B *C 24.9200 -1.0750
*I *161:ZN O *C 28.2800 1.4000 *D gf180mcu_fd_sc_mcu7t5v0__tiel

*CAP
1 *10:2 *74 0.0379878
2 *10:2 *9:2 0.0207206
3 *10:2 *11:2 0.115254
4 *10:2 *129:Z 0.0393087
5 *75 0.33276
6 *10:2 0.321647
7 *10:3 0.1204
8 *10:4 0.122676
9 *10:5 0.0

*RES
1 *75 *10:2 0.789108
2 *161:ZN *10:2 5.445
3 *161:ZN *10:5 0.001
4 *161:ZN *10:4 0.001
5 *10:3 *10:4 0.283788
*END

*D_NET *11 2.18069

*CONN
*P *76 B *C 28.2800 -1.0750
*I *162:ZN O *C 33.8800 6.4400 *D gf180mcu_fd_sc_mcu7t5v0__tiel

*CAP
1 *11:2 *9:2 0.04319
2 *11:2 *10:2 0.115254
3 *11:2 *12:2 0.0874035
4 *11:2 *13:2 0.0543284
5 *11:2 *130:Z 0.0263632
6 *11:2 *131:Z 0.00107323
7 *76 0.098113
8 *162:ZN 0.0991276
9 *11:2 1.39668
10 *11:3 0.11711
11 *11:4 0.142044
12 *11:5 0.0

*RES
1 *76 *11:2 1.16036
2 *162:ZN *11:2 7.41335
3 *162:ZN *11:5 0.001
4 *162:ZN *11:3 0.001
5 *11:3 *11:4 0.276288
*END

*D_NET *12 1.01196

*CONN
*P *77 B *C 31.6400 -1.0750
*I *163:ZN O *C 33.8800 1.4000 *D gf180mcu_fd_sc_mcu7t5v0__tiel

*CAP
1 *12:2 *11:2 0.0874035
2 *12:2 *78 0.0413681
3 *12:2 *131:Z 0.0444647
4 *77 0.302843
5 *12:2 0.26419
6 *12:3 0.136539
7 *12:4 0.135156
8 *12:5 0.0

*RES
1 *77 *12:2 0.789108
2 *163:ZN *12:2 5.13
3 *163:ZN *12:5 0.001
4 *163:ZN *12:4 0.001
5 *12:3 *12:4 0.283788
*END

*D_NET *13 1.80694

*CONN
*P *78 B *C 35.0000 -1.0750
*I *133:ZN O *C 40.6000 6.4400 *D gf180mcu_fd_sc_mcu7t5v0__tiel

*CAP
1 *13:2 *11:2 0.0543284
2 *78 *12:2 0.0413681
3 *78 *14:2 0.048271
4 *13:2 *80 0.0257177
5 *13:2 *101:Z 0.0331844
6 *78 0.842654
7 *13:2 0.503052
8 *13:3 0.116348
9 *13:4 0.14202
10 *13:5 0.0

*RES
1 *78 *13:2 2.40911
2 *133:ZN *13:5 0.001
3 *133:ZN *13:2 6.075
4 *133:ZN *13:3 0.001
5 *13:3 *13:4 0.276288
*END

*D_NET *14 0.846726

*CONN
*P *79 B *C 38.9200 -1.0750
*I *134:ZN O *C 40.6000 1.4000 *D gf180mcu_fd_sc_mcu7t5v0__tiel

*CAP
1 *14:2 *78 0.048271
2 *14:2 *80 0.0677025
3 *14:2 *102:Z 0.0370446
4 *79 0.264991
5 *14:2 0.169437
6 *14:3 0.136745
7 *14:4 0.122535
8 *14:5 0.0

*RES
1 *79 *14:2 0.789108
2 *134:ZN *14:2 4.9725
3 *134:ZN *14:5 0.001
4 *134:ZN *14:4 0.001
5 *14:3 *14:4 0.283788
*END

*D_NET *15 1.55936

*CONN
*P *80 B *C 42.2800 -1.0750
*I *135:ZN O *C 46.2000 6.4400 *D gf180mcu_fd_sc_mcu7t5v0__tiel

*CAP
1 *80 *13:2 0.0257177
2 *80 *14:2 0.0677025
3 *80 *16:2 0.0600672
4 *80 *82 0.0124235
5 *80 *103:Z 0.0321297
6 *80 0.771148
7 *15:2 0.330458
8 *15:3 0.117674
9 *15:4 0.142044
10 *15:5 0.0

*RES
1 *80 *15:2 2.40911
2 *135:ZN *15:2 5.6025
3 *135:ZN *15:5 0.001
4 *135:ZN *15:3 0.001
5 *15:3 *15:4 0.276288
*END

*D_NET *16 0.927804

*CONN
*P *81 B *C 45.6400 -1.0750
*I *136:ZN O *C 46.2000 1.4000 *D gf180mcu_fd_sc_mcu7t5v0__tiel

*CAP
1 *16:2 *80 0.0600672
2 *16:2 *82 0.0541641
3 *16:2 *104:Z 0.032706
4 *81 0.28089
5 *16:2 0.243741
6 *16:3 0.132173
7 *16:4 0.124063
8 *16:5 0.0

*RES
1 *81 *16:2 0.789108
2 *136:ZN *16:5 0.001
3 *136:ZN *16:4 0.001
4 *136:ZN *16:2 4.6575
5 *16:3 *16:4 0.283788
*END

*D_NET *17 1.56489

*CONN
*P *82 B *C 49.0000 -1.0750
*I *137:ZN O *C 52.9200 6.4400 *D gf180mcu_fd_sc_mcu7t5v0__tiel

*CAP
1 *82 *80 0.0124235
2 *82 *16:2 0.0541641
3 *82 *18:2 0.0641518
4 *82 *19:2 0.00140022
5 *82 *105:Z 0.0319279
6 *82 0.772931
7 *17:2 0.362427
8 *17:3 0.116859
9 *17:4 0.148604
10 *17:5 0.0

*RES
1 *82 *17:2 2.40911
2 *137:ZN *17:2 5.6025
3 *137:ZN *17:5 0.001
4 *137:ZN *17:3 0.001
5 *17:3 *17:4 0.276288
*END

*D_NET *18 0.960324

*CONN
*P *83 B *C 52.3600 -1.0750
*I *138:ZN O *C 52.9200 1.4000 *D gf180mcu_fd_sc_mcu7t5v0__tiel

*CAP
1 *18:2 *82 0.0641518
2 *18:2 *19:2 0.0235323
3 *18:2 *106:Z 0.0326865
4 *83 0.286487
5 *18:2 0.294646
6 *18:3 0.136132
7 *18:4 0.122688
8 *18:5 0.0

*RES
1 *83 *18:2 0.789108
2 *138:ZN *18:2 4.6575
3 *138:ZN *18:5 0.001
4 *138:ZN *18:4 0.001
5 *18:3 *18:4 0.283788
*END

*D_NET *19 1.59918

*CONN
*P *84 B *C 56.2800 -1.0750
*I *139:ZN O *C 58.5200 6.4400 *D gf180mcu_fd_sc_mcu7t5v0__tiel

*CAP
1 *19:2 *82 0.00140022
2 *19:2 *18:2 0.0235323
3 *19:2 *20:2 0.0715822
4 *19:2 *21:2 0.00636562
5 *19:2 *107:Z 0.0339689
6 *19:2 *108:Z 0.00335291
7 *84 0.394278
8 *139:ZN 0.0478378
9 *19:2 0.757118
10 *19:3 0.117702
11 *19:4 0.142044
12 *19:5 0.0

*RES
1 *84 *19:2 1.26643
2 *139:ZN *19:2 6.26465
3 *139:ZN *19:5 0.001
4 *139:ZN *19:3 0.001
5 *19:3 *19:4 0.276288
*END

*D_NET *20 0.973431

*CONN
*P *85 B *C 59.6400 -1.0750
*I *140:ZN O *C 58.5200 1.4000 *D gf180mcu_fd_sc_mcu7t5v0__tiel

*CAP
1 *20:2 *19:2 0.0715822
2 *20:2 *21:2 0.0429074
3 *20:2 *108:Z 0.0042279
4 *85 0.292881
5 *20:2 0.304718
6 *20:3 0.134563
7 *20:4 0.122552
8 *20:5 0.0

*RES
1 *85 *20:2 0.789108
2 *140:ZN *20:2 4.815
3 *140:ZN *20:5 0.001
4 *140:ZN *20:4 0.001
5 *20:3 *20:4 0.283788
*END

*D_NET *21 1.65435

*CONN
*P *86 B *C 62.8600 -0.1300
*I *141:ZN O *C 65.2400 6.4400 *D gf180mcu_fd_sc_mcu7t5v0__tiel

*CAP
1 *21:2 *19:2 0.00636562
2 *21:2 *20:2 0.0429074
3 *21:2 *22:2 0.0745974
4 *21:2 *88 0.022697
5 *21:2 *109:Z 0.0112909
6 *21:2 *110:Z 0.0180139
7 *86 0.0513219
8 *141:ZN 0.0436654
9 *21:2 0.602035
10 *21:3 0.0498362
11 *21:4 0.116859
12 *21:5 0.14202
13 *21:7 0.472737

*RES
1 *86 *21:3 0.001
2 *141:ZN *21:6 0.001
3 *141:ZN *21:2 6.22286
4 *141:ZN *21:4 0.001
5 *21:2 *21:7 0.972072
6 *21:3 *21:7 0.001
7 *21:4 *21:5 0.276288
*END

*D_NET *22 0.863732

*CONN
*P *87 B *C 66.3600 -1.0750
*I *142:ZN O *C 65.2400 1.4000 *D gf180mcu_fd_sc_mcu7t5v0__tiel

*CAP
1 *22:2 *21:2 0.0745974
2 *22:2 *88 0.0758784
3 *22:2 *110:Z 0.0042279
4 *87 0.225852
5 *22:2 0.225297
6 *22:3 0.13456
7 *22:4 0.123318
8 *22:5 0.0

*RES
1 *87 *22:2 0.789108
2 *142:ZN *22:2 4.815
3 *142:ZN *22:5 0.001
4 *142:ZN *22:4 0.001
5 *22:3 *22:4 0.283788
*END

*D_NET *23 1.7764

*CONN
*P *88 B *C 70.1400 -0.0675
*I *144:ZN O *C 70.8400 6.4400 *D gf180mcu_fd_sc_mcu7t5v0__tiel

*CAP
1 *88 *21:2 0.022697
2 *88 *22:2 0.0758784
3 *88 *24:2 0.140455
4 *88 *90 0.00690538
5 *88 *112:Z 0.0237155
6 *88 *113:Z 0.00424873
7 *88 0.595985
8 *23:2 0.471951
9 *23:3 0.117702
10 *23:4 0.142044
11 *23:6 0.174822

*RES
1 *88 *23:6 0.001
2 *88 *23:2 2.68232
3 *144:ZN *23:2 5.21438
4 *144:ZN *23:5 0.001
5 *144:ZN *23:3 0.001
6 *23:3 *23:4 0.276288
*END

*D_NET *24 1.22895

*CONN
*P *89 B *C 73.6400 -1.0750
*I *145:ZN O *C 70.8400 1.4000 *D gf180mcu_fd_sc_mcu7t5v0__tiel

*CAP
1 *24:2 *88 0.140455
2 *24:2 *90 0.0719156
3 *24:2 *113:Z 0.0273345
4 *89 0.2857
5 *24:2 0.44904
6 *24:3 0.131955
7 *24:4 0.122552
8 *24:5 0.0

*RES
1 *89 *24:2 0.789108
2 *145:ZN *24:5 0.001
3 *145:ZN *24:4 0.001
4 *145:ZN *24:2 5.2875
5 *24:3 *24:4 0.283788
*END

*D_NET *25 1.93566

*CONN
*P *90 B *C 77.0000 -1.0750
*I *146:ZN O *C 77.5600 6.4400 *D gf180mcu_fd_sc_mcu7t5v0__tiel

*CAP
1 *90 *88 0.00690538
2 *90 *24:2 0.0719156
3 *90 *26:2 0.117224
4 *90 *148:ZN 0.00533489
5 *90 *114:Z 0.0214437
6 *90 *115:Z 0.00446971
7 *90 0.711208
8 *25:2 0.738863
9 *25:3 0.116874
10 *25:4 0.141424
11 *25:5 0.0

*RES
1 *90 *25:2 3.03107
2 *146:ZN *25:2 5.20172
3 *146:ZN *25:5 0.001
4 *146:ZN *25:3 0.001
5 *25:3 *25:4 0.276288
*END

*D_NET *26 1.26289

*CONN
*P *91 B *C 80.3600 -1.0750
*I *147:ZN O *C 77.5600 1.4000 *D gf180mcu_fd_sc_mcu7t5v0__tiel

*CAP
1 *26:2 *90 0.117224
2 *26:2 *92 0.0473221
3 *26:2 *28:2 0.0422687
4 *26:2 *115:Z 0.019659
5 *26:2 *117:Z 0.0242054
6 *91 0.296546
7 *26:2 0.462646
8 *26:3 0.131866
9 *26:4 0.121158
10 *26:5 0.0

*RES
1 *91 *26:2 0.789108
2 *147:ZN *26:2 5.2875
3 *147:ZN *26:5 0.001
4 *147:ZN *26:4 0.001
5 *26:3 *26:4 0.283788
*END

*D_NET *27 2.15456

*CONN
*P *92 B *C 83.7200 -1.0750
*I *148:ZN O *C 83.1600 6.4400 *D gf180mcu_fd_sc_mcu7t5v0__tiel

*CAP
1 *148:ZN *90 0.00533489
2 *92 *26:2 0.0473221
3 *92 *28:2 0.281606
4 *148:ZN *29:2 0.00722254
5 *148:ZN *116:Z 0.03861
6 *92 *117:Z 0.000692085
7 *92 0.22578
8 *148:ZN 0.307828
9 *27:2 0.117196
10 *27:3 0.980919
11 *27:4 0.142044
12 *27:5 0.0

*RES
1 *92 *27:3 5.20264
2 *148:ZN *27:3 10.8547
3 *148:ZN *27:5 0.001
4 *148:ZN *27:2 0.001
5 *27:2 *27:4 0.276288
*END

*D_NET *28 1.4794

*CONN
*P *93 B *C 87.5000 -0.3587
*I *149:ZN O *C 83.1600 1.4000 *D gf180mcu_fd_sc_mcu7t5v0__tiel

*CAP
1 *28:2 *26:2 0.0422687
2 *28:2 *92 0.281606
3 *28:2 *94 0.0540038
4 *28:2 *117:Z 0.0376673
5 *28:2 *119:Z 0.0589631
6 *93 0.0515417
7 *28:2 0.512877
8 *28:3 0.12601
9 *28:4 0.111608
10 *28:6 0.202858

*RES
1 *93 *28:6 0.113083
2 *149:ZN *28:2 5.75297
3 *149:ZN *28:5 0.001
4 *149:ZN *28:4 0.001
5 *28:2 *28:6 0.433527
6 *28:3 *28:4 0.283788
*END

*D_NET *29 2.1957

*CONN
*P *94 B *C 91.0000 -1.0750
*I *150:ZN O *C 89.8800 6.4400 *D gf180mcu_fd_sc_mcu7t5v0__tiel

*CAP
1 *29:2 *148:ZN 0.00722254
2 *94 *28:2 0.0540038
3 *94 *30:2 0.396881
4 *29:2 *31:2 0.00998487
5 *29:2 *118:Z 0.0168769
6 *94 *119:Z 0.000628525
7 *94 *121:Z 0.000169049
8 *94 0.556833
9 *29:2 0.894806
10 *29:3 0.116271
11 *29:4 0.14202
12 *29:5 0.0

*RES
1 *94 *29:2 11.525
2 *150:ZN *29:2 4.68141
3 *150:ZN *29:5 0.001
4 *150:ZN *29:3 0.001
5 *29:3 *29:4 0.276288
*END

*D_NET *30 1.51017

*CONN
*P *95 B *C 94.3600 -1.0750
*I *151:ZN O *C 89.8800 1.4000 *D gf180mcu_fd_sc_mcu7t5v0__tiel

*CAP
1 *30:2 *94 0.396881
2 *30:2 *96 0.0538342
3 *30:2 *32:2 0.154682
4 *30:2 *119:Z 0.0151282
5 *30:2 *121:Z 0.00160036
6 *95 0.354634
7 *30:2 0.299272
8 *30:3 0.122349
9 *30:4 0.11179
10 *30:5 0.0

*RES
1 *95 *30:2 1.58143
2 *151:ZN *30:2 5.06672
3 *151:ZN *30:5 0.001
4 *151:ZN *30:4 0.001
5 *30:3 *30:4 0.283788
*END

*D_NET *31 2.67127

*CONN
*P *96 B *C 97.7200 -1.0750
*I *152:ZN O *C 95.4800 6.4400 *D gf180mcu_fd_sc_mcu7t5v0__tiel

*CAP
1 *31:2 *29:2 0.00998487
2 *96 *30:2 0.0538342
3 *96 *32:2 0.494112
4 *31:2 *33:2 0.000765253
5 *31:2 *120:Z 0.0387366
6 *96 *121:Z 0.000653907
7 *96 0.840446
8 *31:2 0.972041
9 *31:3 0.117174
10 *31:4 0.143522
11 *31:5 0.0

*RES
1 *96 *31:2 11.9084
2 *152:ZN *31:2 4.67438
3 *152:ZN *31:5 0.001
4 *152:ZN *31:3 0.001
5 *31:3 *31:4 0.276288
*END

*D_NET *32 2.26541

*CONN
*P *97 B *C 101.6400 -1.0750
*I *153:ZN O *C 95.4800 1.4000 *D gf180mcu_fd_sc_mcu7t5v0__tiel

*CAP
1 *32:2 *30:2 0.154682
2 *32:2 *96 0.494112
3 *32:2 *98 0.071503
4 *32:2 *34:2 0.229253
5 *32:2 *121:Z 0.0268021
6 *32:2 *124:Z 0.0017578
7 *97 0.505609
8 *32:2 0.549006
9 *32:3 0.120934
10 *32:4 0.111755
11 *32:5 0.0

*RES
1 *97 *32:2 1.68429
2 *153:ZN *32:5 0.001
3 *153:ZN *32:4 0.001
4 *153:ZN *32:2 5.44922
5 *32:3 *32:4 0.283788
*END

*D_NET *33 2.44078

*CONN
*P *98 B *C 105.0000 -1.0750
*I *155:ZN O *C 102.2000 6.4400 *D gf180mcu_fd_sc_mcu7t5v0__tiel

*CAP
1 *33:2 *31:2 0.000765253
2 *98 *32:2 0.071503
3 *98 *34:2 0.519675
4 *33:2 *123:Z 0.0168641
5 *98 0.627339
6 *33:2 0.946233
7 *33:3 0.116379
8 *33:4 0.14202
9 *33:5 0.0

*RES
1 *98 *33:2 12.0869
2 *155:ZN *33:2 4.67016
3 *155:ZN *33:5 0.001
4 *155:ZN *33:3 0.001
5 *33:3 *33:4 0.276288
*END

*D_NET *34 2.04521

*CONN
*P *99 B *C 108.3600 -1.0750
*I *156:ZN O *C 102.2000 1.4000 *D gf180mcu_fd_sc_mcu7t5v0__tiel

*CAP
1 *34:2 *32:2 0.229253
2 *34:2 *98 0.519675
3 *34:2 *124:Z 0.0304573
4 *99 0.351498
5 *34:2 0.680749
6 *34:3 0.121933
7 *34:4 0.111641
8 *34:5 0.0

*RES
1 *99 *34:2 0.789108
2 *156:ZN *34:2 6.2325
3 *156:ZN *34:5 0.001
4 *156:ZN *34:4 0.001
5 *34:3 *34:4 0.283788
*END

*D_NET *36 0.803723

*CONN
*I *100:Z O *C 6.9100 5.8525 *D gf180mcu_fd_sc_mcu7t5v0__tieh

*CAP
1 *100:Z *3:2 0.0438793
2 *100:Z 0.759844
*END

*D_NET *37 0.757102

*CONN
*I *101:Z O *C 38.2700 5.8525 *D gf180mcu_fd_sc_mcu7t5v0__tieh

*CAP
1 *101:Z *13:2 0.0331844
2 *101:Z 0.723918
*END

*D_NET *38 0.700626

*CONN
*I *102:Z O *C 38.3600 2.3050 *D gf180mcu_fd_sc_mcu7t5v0__tieh

*CAP
1 *102:Z *14:2 0.0370446
2 *102:Z 0.663582
*END

*D_NET *39 0.752058

*CONN
*I *103:Z O *C 43.8700 5.8525 *D gf180mcu_fd_sc_mcu7t5v0__tieh

*CAP
1 *103:Z *80 0.0321297
2 *103:Z 0.719928
*END

*D_NET *40 0.661517

*CONN
*I *104:Z O *C 43.9600 2.3050 *D gf180mcu_fd_sc_mcu7t5v0__tieh

*CAP
1 *104:Z *16:2 0.032706
2 *104:Z 0.628811
*END

*D_NET *41 0.752788

*CONN
*I *105:Z O *C 50.5900 5.8525 *D gf180mcu_fd_sc_mcu7t5v0__tieh

*CAP
1 *105:Z *82 0.0319279
2 *105:Z 0.72086
*END

*D_NET *42 0.662536

*CONN
*I *106:Z O *C 50.6800 2.3050 *D gf180mcu_fd_sc_mcu7t5v0__tieh

*CAP
1 *106:Z *18:2 0.0326865
2 *106:Z 0.629849
*END

*D_NET *43 0.759927

*CONN
*I *107:Z O *C 56.1900 5.8525 *D gf180mcu_fd_sc_mcu7t5v0__tieh

*CAP
1 *107:Z *19:2 0.0339689
2 *107:Z 0.725958
*END

*D_NET *44 0.621631

*CONN
*I *108:Z O *C 56.2800 2.3050 *D gf180mcu_fd_sc_mcu7t5v0__tieh

*CAP
1 *108:Z *19:2 0.00335291
2 *108:Z *20:2 0.0042279
3 *108:Z 0.61405
*END

*D_NET *45 0.739781

*CONN
*I *109:Z O *C 62.9100 5.8525 *D gf180mcu_fd_sc_mcu7t5v0__tieh

*CAP
1 *109:Z *21:2 0.0112909
2 *109:Z 0.72849
*END

*D_NET *46 0.637536

*CONN
*I *110:Z O *C 63.0000 2.3050 *D gf180mcu_fd_sc_mcu7t5v0__tieh

*CAP
1 *110:Z *21:2 0.0180139
2 *110:Z *22:2 0.0042279
3 *110:Z 0.615295
*END

*D_NET *47 0.71196

*CONN
*I *111:Z O *C 7.0000 2.3050 *D gf180mcu_fd_sc_mcu7t5v0__tieh

*CAP
1 *111:Z *3:2 0.00464675
2 *111:Z *4:2 0.0266816
3 *111:Z *5:2 0.00438776
4 *111:Z 0.676244
*END

*D_NET *48 0.840614

*CONN
*I *112:Z O *C 68.5100 5.8525 *D gf180mcu_fd_sc_mcu7t5v0__tieh

*CAP
1 *112:Z *88 0.0237155
2 *112:Z 0.816898
*END

*D_NET *49 0.854702

*CONN
*I *113:Z O *C 68.6000 2.3050 *D gf180mcu_fd_sc_mcu7t5v0__tieh

*CAP
1 *113:Z *88 0.00424873
2 *113:Z *24:2 0.0273345
3 *113:Z 0.823119
*END

*D_NET *50 0.838227

*CONN
*I *114:Z O *C 75.2300 5.8525 *D gf180mcu_fd_sc_mcu7t5v0__tieh

*CAP
1 *114:Z *90 0.0214437
2 *114:Z 0.816783
*END

*D_NET *51 0.827622

*CONN
*I *115:Z O *C 75.3200 2.3050 *D gf180mcu_fd_sc_mcu7t5v0__tieh

*CAP
1 *115:Z *90 0.00446971
2 *115:Z *26:2 0.019659
3 *115:Z 0.803494
*END

*D_NET *52 0.79141

*CONN
*I *116:Z O *C 80.8300 5.8525 *D gf180mcu_fd_sc_mcu7t5v0__tieh

*CAP
1 *116:Z *148:ZN 0.03861
2 *116:Z 0.7528
*END

*D_NET *53 0.688627

*CONN
*I *117:Z O *C 80.9200 2.3050 *D gf180mcu_fd_sc_mcu7t5v0__tieh

*CAP
1 *117:Z *26:2 0.0242054
2 *117:Z *92 0.000692085
3 *117:Z *28:2 0.0376673
4 *117:Z 0.626063
*END

*D_NET *54 0.737274

*CONN
*I *118:Z O *C 87.5500 5.8525 *D gf180mcu_fd_sc_mcu7t5v0__tieh

*CAP
1 *118:Z *29:2 0.0168769
2 *118:Z 0.720397
*END

*D_NET *55 0.677967

*CONN
*I *119:Z O *C 87.6400 2.3050 *D gf180mcu_fd_sc_mcu7t5v0__tieh

*CAP
1 *119:Z *28:2 0.0589631
2 *119:Z *94 0.000628525
3 *119:Z *30:2 0.0151282
4 *119:Z 0.603247
*END

*D_NET *56 0.791839

*CONN
*I *120:Z O *C 93.1500 5.8525 *D gf180mcu_fd_sc_mcu7t5v0__tieh

*CAP
1 *120:Z *31:2 0.0387366
2 *120:Z 0.753102
*END

*D_NET *57 0.635762

*CONN
*I *121:Z O *C 93.2400 2.3050 *D gf180mcu_fd_sc_mcu7t5v0__tieh

*CAP
1 *121:Z *94 0.000169049
2 *121:Z *30:2 0.00160036
3 *121:Z *96 0.000653907
4 *121:Z *32:2 0.0268021
5 *121:Z 0.606536
*END

*D_NET *58 0.796879

*CONN
*I *122:Z O *C 13.6300 5.8525 *D gf180mcu_fd_sc_mcu7t5v0__tieh

*CAP
1 *122:Z *5:2 0.0414025
2 *122:Z 0.755476
*END

*D_NET *59 0.829651

*CONN
*I *123:Z O *C 99.8700 5.8525 *D gf180mcu_fd_sc_mcu7t5v0__tieh

*CAP
1 *123:Z *33:2 0.0168641
2 *123:Z 0.812787
*END

*D_NET *60 0.8108

*CONN
*I *124:Z O *C 99.9600 2.3050 *D gf180mcu_fd_sc_mcu7t5v0__tieh

*CAP
1 *124:Z *32:2 0.0017578
2 *124:Z *34:2 0.0304573
3 *124:Z 0.778585
*END

*D_NET *61 0.655789

*CONN
*I *125:Z O *C 13.7200 2.3050 *D gf180mcu_fd_sc_mcu7t5v0__tieh

*CAP
1 *125:Z *71 0.037639
2 *125:Z 0.61815
*END

*D_NET *62 0.747931

*CONN
*I *126:Z O *C 19.2300 5.8525 *D gf180mcu_fd_sc_mcu7t5v0__tieh

*CAP
1 *126:Z *7:2 0.0194349
2 *126:Z 0.728496
*END

*D_NET *63 0.751552

*CONN
*I *127:Z O *C 19.3200 2.3050 *D gf180mcu_fd_sc_mcu7t5v0__tieh

*CAP
1 *127:Z *8:2 0.0500958
2 *127:Z 0.701456
*END

*D_NET *64 0.777577

*CONN
*I *128:Z O *C 25.9500 5.8525 *D gf180mcu_fd_sc_mcu7t5v0__tieh

*CAP
1 *128:Z *9:2 0.0521103
2 *128:Z 0.725467
*END

*D_NET *65 0.674408

*CONN
*I *129:Z O *C 26.0400 2.3050 *D gf180mcu_fd_sc_mcu7t5v0__tieh

*CAP
1 *129:Z *10:2 0.0393087
2 *129:Z 0.6351
*END

*D_NET *66 0.759808

*CONN
*I *130:Z O *C 31.5500 5.8525 *D gf180mcu_fd_sc_mcu7t5v0__tieh

*CAP
1 *130:Z *11:2 0.0263632
2 *130:Z 0.733445
*END

*D_NET *67 0.653069

*CONN
*I *131:Z O *C 31.6400 2.3050 *D gf180mcu_fd_sc_mcu7t5v0__tieh

*CAP
1 *131:Z *11:2 0.00107323
2 *131:Z *12:2 0.0444647
3 *131:Z 0.607531
*END
