*SPEF "IEEE 1481-1999"
*DESIGN "user_id_programming"
*DATE "Tue Oct 17 02:40:18 2023"
*VENDOR "Synopsys Inc."
*PROGRAM "StarRC"
*VERSION "U-2022.12-SP4"
*DESIGN_FLOW "PIN_CAP NONE" "NAME_SCOPE LOCAL"
*DIVIDER /
*DELIMITER :
*BUS_DELIMITER ()
*T_UNIT 1.0 NS
*C_UNIT 1.0 FF
*R_UNIT 1.0 OHM
*L_UNIT 1.0 HENRY

// COMMENTS

// CORNER_NAME 
// OPERATING_TEMPERATURE 25
// GLOBAL_TEMPERATURE 25
// TCAD_GRD_FILE /home/passant/caravel-gf180mcu/scripts/gf180mcu-tech/gf180mcu_1p5m_1tm_11k_sp_smim_OPTB_typ.nxtgrd
//   TCAD_TIME_STAMP Tue Dec 26 18:36:27 2017
//   TCADGRD_VERSION 75
// galaxy_comments_begin
//   local_nodeid
// galaxy_comments_end

*NAME_MAP
*68 mask_rev\[0\]
*69 mask_rev\[1\]
*70 mask_rev\[2\]
*71 mask_rev\[3\]
*72 mask_rev\[4\]
*73 mask_rev\[5\]
*74 mask_rev\[6\]
*75 mask_rev\[7\]
*76 mask_rev\[8\]
*77 mask_rev\[9\]
*78 mask_rev\[10\]
*79 mask_rev\[11\]
*80 mask_rev\[12\]
*81 mask_rev\[13\]
*82 mask_rev\[14\]
*83 mask_rev\[15\]
*84 mask_rev\[16\]
*85 mask_rev\[17\]
*86 mask_rev\[18\]
*87 mask_rev\[19\]
*88 mask_rev\[20\]
*89 mask_rev\[21\]
*90 mask_rev\[22\]
*91 mask_rev\[23\]
*92 mask_rev\[24\]
*93 mask_rev\[25\]
*94 mask_rev\[26\]
*95 mask_rev\[27\]
*96 mask_rev\[28\]
*97 mask_rev\[29\]
*98 mask_rev\[30\]
*99 mask_rev\[31\]
*100 mask_rev_value_one\[0\]
*101 mask_rev_value_one\[10\]
*102 mask_rev_value_one\[11\]
*103 mask_rev_value_one\[12\]
*104 mask_rev_value_one\[13\]
*105 mask_rev_value_one\[14\]
*106 mask_rev_value_one\[15\]
*107 mask_rev_value_one\[16\]
*108 mask_rev_value_one\[17\]
*109 mask_rev_value_one\[18\]
*110 mask_rev_value_one\[19\]
*111 mask_rev_value_one\[1\]
*112 mask_rev_value_one\[20\]
*113 mask_rev_value_one\[21\]
*114 mask_rev_value_one\[22\]
*115 mask_rev_value_one\[23\]
*116 mask_rev_value_one\[24\]
*117 mask_rev_value_one\[25\]
*118 mask_rev_value_one\[26\]
*119 mask_rev_value_one\[27\]
*120 mask_rev_value_one\[28\]
*121 mask_rev_value_one\[29\]
*122 mask_rev_value_one\[2\]
*123 mask_rev_value_one\[30\]
*124 mask_rev_value_one\[31\]
*125 mask_rev_value_one\[3\]
*126 mask_rev_value_one\[4\]
*127 mask_rev_value_one\[5\]
*128 mask_rev_value_one\[6\]
*129 mask_rev_value_one\[7\]
*130 mask_rev_value_one\[8\]
*131 mask_rev_value_one\[9\]
*132 mask_rev_value_zero\[0\]
*133 mask_rev_value_zero\[10\]
*134 mask_rev_value_zero\[11\]
*135 mask_rev_value_zero\[12\]
*136 mask_rev_value_zero\[13\]
*137 mask_rev_value_zero\[14\]
*138 mask_rev_value_zero\[15\]
*139 mask_rev_value_zero\[16\]
*140 mask_rev_value_zero\[17\]
*141 mask_rev_value_zero\[18\]
*142 mask_rev_value_zero\[19\]
*143 mask_rev_value_zero\[1\]
*144 mask_rev_value_zero\[20\]
*145 mask_rev_value_zero\[21\]
*146 mask_rev_value_zero\[22\]
*147 mask_rev_value_zero\[23\]
*148 mask_rev_value_zero\[24\]
*149 mask_rev_value_zero\[25\]
*150 mask_rev_value_zero\[26\]
*151 mask_rev_value_zero\[27\]
*152 mask_rev_value_zero\[28\]
*153 mask_rev_value_zero\[29\]
*154 mask_rev_value_zero\[2\]
*155 mask_rev_value_zero\[30\]
*156 mask_rev_value_zero\[31\]
*157 mask_rev_value_zero\[3\]
*158 mask_rev_value_zero\[4\]
*159 mask_rev_value_zero\[5\]
*160 mask_rev_value_zero\[6\]
*161 mask_rev_value_zero\[7\]
*162 mask_rev_value_zero\[8\]
*163 mask_rev_value_zero\[9\]
*3 mask_rev\[0\]
*4 mask_rev\[1\]
*5 mask_rev\[2\]
*6 mask_rev\[3\]
*7 mask_rev\[4\]
*8 mask_rev\[5\]
*9 mask_rev\[6\]
*10 mask_rev\[7\]
*11 mask_rev\[8\]
*12 mask_rev\[9\]
*13 mask_rev\[10\]
*14 mask_rev\[11\]
*15 mask_rev\[12\]
*16 mask_rev\[13\]
*17 mask_rev\[14\]
*18 mask_rev\[15\]
*19 mask_rev\[16\]
*20 mask_rev\[17\]
*21 mask_rev\[18\]
*22 mask_rev\[19\]
*23 mask_rev\[20\]
*24 mask_rev\[21\]
*25 mask_rev\[22\]
*26 mask_rev\[23\]
*27 mask_rev\[24\]
*28 mask_rev\[25\]
*29 mask_rev\[26\]
*30 mask_rev\[27\]
*31 mask_rev\[28\]
*32 mask_rev\[29\]
*33 mask_rev\[30\]
*34 mask_rev\[31\]
*36 mask_rev_value_one\[0\]/Z
*37 mask_rev_value_one\[10\]/Z
*38 mask_rev_value_one\[11\]/Z
*39 mask_rev_value_one\[12\]/Z
*40 mask_rev_value_one\[13\]/Z
*41 mask_rev_value_one\[14\]/Z
*42 mask_rev_value_one\[15\]/Z
*43 mask_rev_value_one\[16\]/Z
*44 mask_rev_value_one\[17\]/Z
*45 mask_rev_value_one\[18\]/Z
*46 mask_rev_value_one\[19\]/Z
*47 mask_rev_value_one\[1\]/Z
*48 mask_rev_value_one\[20\]/Z
*49 mask_rev_value_one\[21\]/Z
*50 mask_rev_value_one\[22\]/Z
*51 mask_rev_value_one\[23\]/Z
*52 mask_rev_value_one\[24\]/Z
*53 mask_rev_value_one\[25\]/Z
*54 mask_rev_value_one\[26\]/Z
*55 mask_rev_value_one\[27\]/Z
*56 mask_rev_value_one\[28\]/Z
*57 mask_rev_value_one\[29\]/Z
*58 mask_rev_value_one\[2\]/Z
*59 mask_rev_value_one\[30\]/Z
*60 mask_rev_value_one\[31\]/Z
*61 mask_rev_value_one\[3\]/Z
*62 mask_rev_value_one\[4\]/Z
*63 mask_rev_value_one\[5\]/Z
*64 mask_rev_value_one\[6\]/Z
*65 mask_rev_value_one\[7\]/Z
*66 mask_rev_value_one\[8\]/Z
*67 mask_rev_value_one\[9\]/Z

*PORTS

*68 B
*69 B
*70 B
*71 B
*72 B
*73 B
*74 B
*75 B
*76 B
*77 B
*78 B
*79 B
*80 B
*81 B
*82 B
*83 B
*84 B
*85 B
*86 B
*87 B
*88 B
*89 B
*90 B
*91 B
*92 B
*93 B
*94 B
*95 B
*96 B
*97 B
*98 B
*99 B

*D_NET *3 2.28464

*CONN
*P *68 B *C 0.2800 -1.0750
*I *132:ZN O *C 9.2400 6.4400 *D gf180mcu_fd_sc_mcu7t5v0__tiel

*CAP
1 *3:2 *4:2 0.222079
2 *3:2 *5:2 0.00419289
3 *3:2 *100:Z 0.0438689
4 *3:2 *111:Z 0.00464466
5 *68 0.233575
6 *132:ZN 0.100273
7 *3:2 1.41587
8 *3:3 0.117686
9 *3:4 0.142447
10 *3:5 0.0

*RES
1 *68 *3:2 2.74018
2 *132:ZN *3:2 6.89585
3 *132:ZN *3:5 0.001
4 *132:ZN *3:3 0.001
5 *3:3 *3:4 0.276288
*END

*D_NET *4 1.46098

*CONN
*P *69 B *C 3.6400 -1.0750
*I *143:ZN O *C 9.2400 1.4000 *D gf180mcu_fd_sc_mcu7t5v0__tiel

*CAP
1 *4:2 *3:2 0.222079
2 *4:2 *5:2 0.180187
3 *4:2 *111:Z 0.0266774
4 *69 0.295888
5 *4:2 0.479692
6 *4:3 0.132308
7 *4:4 0.124146
8 *4:5 0.0

*RES
1 *69 *4:2 0.789108
2 *143:ZN *4:2 6.075
3 *143:ZN *4:5 0.001
4 *143:ZN *4:4 0.001
5 *4:3 *4:4 0.283788
*END

*D_NET *5 2.58809

*CONN
*P *70 B *C 7.5600 -1.0750
*I *154:ZN O *C 15.9600 6.4400 *D gf180mcu_fd_sc_mcu7t5v0__tiel

*CAP
1 *5:2 *3:2 0.00419289
2 *5:2 *4:2 0.180187
3 *5:2 *71 0.22576
4 *5:2 *6:6 0.0168986
5 *5:2 *7:2 0.0703105
6 *5:2 *111:Z 0.00438406
7 *5:2 *122:Z 0.0413912
8 *70 0.252529
9 *154:ZN 0.0991615
10 *5:2 1.43504
11 *5:3 0.116213
12 *5:4 0.142019
13 *5:5 0.0

*RES
1 *70 *5:2 1.97036
2 *154:ZN *5:5 0.001
3 *154:ZN *5:2 7.47422
4 *154:ZN *5:3 0.001
5 *5:3 *5:4 0.276288
*END

*D_NET *6 1.50156

*CONN
*P *71 B *C 11.0600 -0.0700
*I *157:ZN O *C 15.9600 1.4000 *D gf180mcu_fd_sc_mcu7t5v0__tiel

*CAP
1 *71 *5:2 0.22576
2 *6:6 *5:2 0.0168986
3 *71 *72 0.116089
4 *71 *7:2 0.124655
5 *6:6 *72 0.0315488
6 *71 *125:Z 0.037629
7 *71 0.254551
8 *6:2 0.3173
9 *6:3 0.122389
10 *6:4 0.123203
11 *6:6 0.131538

*RES
1 *71 *6:2 1.05911
2 *71 *6:6 0.001
3 *157:ZN *6:2 5.36485
4 *157:ZN *6:5 0.001
5 *157:ZN *6:4 0.001
6 *6:3 *6:4 0.283788
*END

*D_NET *7 2.11544

*CONN
*P *72 B *C 14.2800 -1.0750
*I *158:ZN O *C 21.5600 6.4400 *D gf180mcu_fd_sc_mcu7t5v0__tiel

*CAP
1 *7:2 *5:2 0.0703105
2 *72 *71 0.116089
3 *7:2 *71 0.124655
4 *72 *6:6 0.0315488
5 *72 *8:2 0.0424234
6 *7:2 *8:2 0.138972
7 *7:2 *9:2 0.0329458
8 *7:2 *126:Z 0.0194326
9 *72 0.0401168
10 *158:ZN 0.144573
11 *7:2 1.09465
12 *7:3 0.117686
13 *7:4 0.142042
14 *7:5 0.0

*RES
1 *72 *7:2 1.16839
2 *158:ZN *7:2 7.88706
3 *158:ZN *7:5 0.001
4 *158:ZN *7:3 0.001
5 *7:3 *7:4 0.276288
*END

*D_NET *8 1.16254

*CONN
*P *73 B *C 17.6400 -1.0750
*I *159:ZN O *C 21.5600 1.4000 *D gf180mcu_fd_sc_mcu7t5v0__tiel

*CAP
1 *8:2 *72 0.0424234
2 *8:2 *7:2 0.138972
3 *8:2 *74 0.116176
4 *8:2 *9:2 0.0231444
5 *8:2 *127:Z 0.0500851
6 *73 0.262955
7 *8:2 0.277099
8 *8:3 0.127662
9 *8:4 0.124024
10 *8:5 0.0

*RES
1 *73 *8:2 0.789108
2 *159:ZN *8:5 0.001
3 *159:ZN *8:4 0.001
4 *159:ZN *8:2 5.6025
5 *8:3 *8:4 0.283788
*END

*D_NET *9 2.00423

*CONN
*P *74 B *C 21.0000 -1.0750
*I *160:ZN O *C 28.2800 6.4400 *D gf180mcu_fd_sc_mcu7t5v0__tiel

*CAP
1 *9:2 *7:2 0.0329458
2 *74 *8:2 0.116176
3 *9:2 *8:2 0.0231444
4 *74 *10:2 0.0379447
5 *9:2 *10:2 0.0207168
6 *9:2 *11:2 0.0431659
7 *9:2 *128:Z 0.0520991
8 *74 0.0600888
9 *160:ZN 0.125736
10 *9:2 1.2244
11 *9:3 0.125796
12 *9:4 0.142019
13 *9:5 0.0

*RES
1 *74 *9:2 1.44
2 *160:ZN *9:2 7.63212
3 *160:ZN *9:5 0.001
4 *160:ZN *9:3 0.001
5 *9:3 *9:4 0.276288
*END

*D_NET *10 1.11111

*CONN
*P *75 B *C 24.9200 -1.0750
*I *161:ZN O *C 28.2800 1.4000 *D gf180mcu_fd_sc_mcu7t5v0__tiel

*CAP
1 *10:2 *74 0.0379447
2 *10:2 *9:2 0.0207168
3 *10:2 *11:2 0.115193
4 *10:2 *129:Z 0.039298
5 *75 0.333037
6 *10:2 0.321855
7 *10:3 0.120395
8 *10:4 0.122673
9 *10:5 0.0

*RES
1 *75 *10:2 0.789108
2 *161:ZN *10:2 5.445
3 *161:ZN *10:5 0.001
4 *161:ZN *10:4 0.001
5 *10:3 *10:4 0.283788
*END

*D_NET *11 2.18106

*CONN
*P *76 B *C 28.2800 -1.0750
*I *162:ZN O *C 33.8800 6.4400 *D gf180mcu_fd_sc_mcu7t5v0__tiel

*CAP
1 *11:2 *9:2 0.0431659
2 *11:2 *10:2 0.115193
3 *11:2 *12:2 0.087377
4 *11:2 *13:2 0.0543193
5 *11:2 *130:Z 0.0263605
6 *11:2 *131:Z 0.0010728
7 *76 0.0982387
8 *162:ZN 0.0991677
9 *11:2 1.39702
10 *11:3 0.117108
11 *11:4 0.142042
12 *11:5 0.0

*RES
1 *76 *11:2 1.16036
2 *162:ZN *11:2 7.41335
3 *162:ZN *11:5 0.001
4 *162:ZN *11:3 0.001
5 *11:3 *11:4 0.276288
*END

*D_NET *12 1.01217

*CONN
*P *77 B *C 31.6400 -1.0750
*I *163:ZN O *C 33.8800 1.4000 *D gf180mcu_fd_sc_mcu7t5v0__tiel

*CAP
1 *12:2 *11:2 0.087377
2 *12:2 *78 0.041352
3 *12:2 *131:Z 0.0444606
4 *77 0.303013
5 *12:2 0.26428
6 *12:3 0.136539
7 *12:4 0.135148
8 *12:5 0.0

*RES
1 *77 *12:2 0.789108
2 *163:ZN *12:2 5.13
3 *163:ZN *12:5 0.001
4 *163:ZN *12:4 0.001
5 *12:3 *12:4 0.283788
*END

*D_NET *13 1.80741

*CONN
*P *78 B *C 35.0000 -1.0750
*I *133:ZN O *C 40.6000 6.4400 *D gf180mcu_fd_sc_mcu7t5v0__tiel

*CAP
1 *13:2 *11:2 0.0543193
2 *78 *12:2 0.041352
3 *78 *14:2 0.0482141
4 *13:2 *80 0.0257062
5 *13:2 *101:Z 0.0331785
6 *78 0.842935
7 *13:2 0.503343
8 *13:3 0.116346
9 *13:4 0.142019
10 *13:5 0.0

*RES
1 *78 *13:2 2.40911
2 *133:ZN *13:5 0.001
3 *133:ZN *13:2 6.075
4 *133:ZN *13:3 0.001
5 *13:3 *13:4 0.276288
*END

*D_NET *14 0.847065

*CONN
*P *79 B *C 38.9200 -1.0750
*I *134:ZN O *C 40.6000 1.4000 *D gf180mcu_fd_sc_mcu7t5v0__tiel

*CAP
1 *14:2 *78 0.0482141
2 *14:2 *80 0.0676496
3 *14:2 *102:Z 0.0370349
4 *79 0.265285
5 *14:2 0.169605
6 *14:3 0.136745
7 *14:4 0.122532
8 *14:5 0.0

*RES
1 *79 *14:2 0.789108
2 *134:ZN *14:2 4.9725
3 *134:ZN *14:5 0.001
4 *134:ZN *14:4 0.001
5 *14:3 *14:4 0.283788
*END

*D_NET *15 1.55992

*CONN
*P *80 B *C 42.2800 -1.0750
*I *135:ZN O *C 46.2000 6.4400 *D gf180mcu_fd_sc_mcu7t5v0__tiel

*CAP
1 *80 *13:2 0.0257062
2 *80 *14:2 0.0676496
3 *80 *16:2 0.0600105
4 *80 *82 0.0124119
5 *80 *103:Z 0.0321242
6 *80 0.771614
7 *15:2 0.330693
8 *15:3 0.117672
9 *15:4 0.142042
10 *15:5 0.0

*RES
1 *80 *15:2 2.40911
2 *135:ZN *15:2 5.6025
3 *135:ZN *15:5 0.001
4 *135:ZN *15:3 0.001
5 *15:3 *15:4 0.276288
*END

*D_NET *16 0.928113

*CONN
*P *81 B *C 45.6400 -1.0750
*I *136:ZN O *C 46.2000 1.4000 *D gf180mcu_fd_sc_mcu7t5v0__tiel

*CAP
1 *16:2 *80 0.0600105
2 *16:2 *82 0.0541067
3 *16:2 *104:Z 0.0326974
4 *81 0.28118
5 *16:2 0.243886
6 *16:3 0.132173
7 *16:4 0.12406
8 *16:5 0.0

*RES
1 *81 *16:2 0.789108
2 *136:ZN *16:5 0.001
3 *136:ZN *16:4 0.001
4 *136:ZN *16:2 4.6575
5 *16:3 *16:4 0.283788
*END

*D_NET *17 1.56549

*CONN
*P *82 B *C 49.0000 -1.0750
*I *137:ZN O *C 52.9200 6.4400 *D gf180mcu_fd_sc_mcu7t5v0__tiel

*CAP
1 *82 *80 0.0124119
2 *82 *16:2 0.0541067
3 *82 *18:2 0.064094
4 *82 *19:2 0.00140087
5 *82 *105:Z 0.0319224
6 *82 0.773444
7 *17:2 0.362648
8 *17:3 0.116857
9 *17:4 0.148601
10 *17:5 0.0

*RES
1 *82 *17:2 2.40911
2 *137:ZN *17:2 5.6025
3 *137:ZN *17:5 0.001
4 *137:ZN *17:3 0.001
5 *17:3 *17:4 0.276288
*END

*D_NET *18 0.960522

*CONN
*P *83 B *C 52.3600 -1.0750
*I *138:ZN O *C 52.9200 1.4000 *D gf180mcu_fd_sc_mcu7t5v0__tiel

*CAP
1 *18:2 *82 0.064094
2 *18:2 *19:2 0.0235075
3 *18:2 *106:Z 0.032678
4 *83 0.286709
5 *18:2 0.294718
6 *18:3 0.136131
7 *18:4 0.122685
8 *18:5 0.0

*RES
1 *83 *18:2 0.789108
2 *138:ZN *18:2 4.6575
3 *138:ZN *18:5 0.001
4 *138:ZN *18:4 0.001
5 *18:3 *18:4 0.283788
*END

*D_NET *19 1.5995

*CONN
*P *84 B *C 56.2800 -1.0750
*I *139:ZN O *C 58.5200 6.4400 *D gf180mcu_fd_sc_mcu7t5v0__tiel

*CAP
1 *19:2 *82 0.00140087
2 *19:2 *18:2 0.0235075
3 *19:2 *20:2 0.0715373
4 *19:2 *21:2 0.00635989
5 *19:2 *107:Z 0.0339599
6 *19:2 *108:Z 0.00335279
7 *84 0.39449
8 *139:ZN 0.0478666
9 *19:2 0.757285
10 *19:3 0.1177
11 *19:4 0.142042
12 *19:5 0.0

*RES
1 *84 *19:2 1.26643
2 *139:ZN *19:2 6.26465
3 *139:ZN *19:5 0.001
4 *139:ZN *19:3 0.001
5 *19:3 *19:4 0.276288
*END

*D_NET *20 0.973772

*CONN
*P *85 B *C 59.6400 -1.0750
*I *140:ZN O *C 58.5200 1.4000 *D gf180mcu_fd_sc_mcu7t5v0__tiel

*CAP
1 *20:2 *19:2 0.0715373
2 *20:2 *21:2 0.0428645
3 *20:2 *108:Z 0.00422784
4 *85 0.293157
5 *20:2 0.304873
6 *20:3 0.134563
7 *20:4 0.122549
8 *20:5 0.0

*RES
1 *85 *20:2 0.789108
2 *140:ZN *20:2 4.815
3 *140:ZN *20:5 0.001
4 *140:ZN *20:4 0.001
5 *20:3 *20:4 0.283788
*END

*D_NET *21 1.65476

*CONN
*P *86 B *C 62.8600 -0.1300
*I *141:ZN O *C 65.2400 6.4400 *D gf180mcu_fd_sc_mcu7t5v0__tiel

*CAP
1 *21:2 *19:2 0.00635989
2 *21:2 *20:2 0.0428645
3 *21:2 *22:2 0.074553
4 *21:2 *88 0.022674
5 *21:2 *109:Z 0.0112888
6 *21:2 *110:Z 0.0180104
7 *86 0.522214
8 *141:ZN 0.0436975
9 *21:2 0.602292
10 *21:3 0.00207392
11 *21:4 0.0498594
12 *21:5 0.116857
13 *21:6 0.142019
14 *21:7 0.0

*RES
1 *86 *21:2 0.98518
2 *86 *21:3 0.001
3 *141:ZN *21:7 0.001
4 *141:ZN *21:2 6.22286
5 *141:ZN *21:5 0.001
6 *21:3 *21:4 0.001
7 *21:5 *21:6 0.276288
*END

*D_NET *22 0.864094

*CONN
*P *87 B *C 66.3600 -1.0750
*I *142:ZN O *C 65.2400 1.4000 *D gf180mcu_fd_sc_mcu7t5v0__tiel

*CAP
1 *22:2 *21:2 0.074553
2 *22:2 *88 0.075816
3 *22:2 *110:Z 0.00422784
4 *87 0.226141
5 *22:2 0.22548
6 *22:3 0.13456
7 *22:4 0.123316
8 *22:5 0.0

*RES
1 *87 *22:2 0.789108
2 *142:ZN *22:2 4.815
3 *142:ZN *22:5 0.001
4 *142:ZN *22:4 0.001
5 *22:3 *22:4 0.283788
*END

*D_NET *23 1.77697

*CONN
*P *88 B *C 70.1400 -0.0675
*I *144:ZN O *C 70.8400 6.4400 *D gf180mcu_fd_sc_mcu7t5v0__tiel

*CAP
1 *88 *21:2 0.022674
2 *88 *22:2 0.075816
3 *88 *24:2 0.140387
4 *88 *90 0.00689835
5 *88 *112:Z 0.023709
6 *88 *113:Z 0.00424822
7 *88 0.688505
8 *23:2 0.511113
9 *23:3 0.0438796
10 *23:4 0.1177
11 *23:5 0.142042
12 *23:6 0.0

*RES
1 *88 *23:2 2.64281
2 *88 *23:3 0.001
3 *144:ZN *23:2 5.21438
4 *144:ZN *23:6 0.001
5 *144:ZN *23:4 0.001
6 *23:4 *23:5 0.276288
*END

*D_NET *24 1.2293

*CONN
*P *89 B *C 73.6400 -1.0750
*I *145:ZN O *C 70.8400 1.4000 *D gf180mcu_fd_sc_mcu7t5v0__tiel

*CAP
1 *24:2 *88 0.140387
2 *24:2 *90 0.0718683
3 *24:2 *113:Z 0.0273253
4 *89 0.285961
5 *24:2 0.449259
6 *24:3 0.131955
7 *24:4 0.122549
8 *24:5 0.0

*RES
1 *89 *24:2 0.789108
2 *145:ZN *24:5 0.001
3 *145:ZN *24:4 0.001
4 *145:ZN *24:2 5.2875
5 *24:3 *24:4 0.283788
*END

*D_NET *25 1.93595

*CONN
*P *90 B *C 77.0000 -1.0750
*I *146:ZN O *C 77.5600 6.4400 *D gf180mcu_fd_sc_mcu7t5v0__tiel

*CAP
1 *90 *88 0.00689835
2 *90 *24:2 0.0718683
3 *90 *26:2 0.117199
4 *90 *148:ZN 0.00532912
5 *90 *114:Z 0.0214395
6 *90 *115:Z 0.00446919
7 *90 0.711514
8 *25:2 0.738942
9 *25:3 0.116872
10 *25:4 0.141422
11 *25:5 0.0

*RES
1 *90 *25:2 3.03107
2 *146:ZN *25:2 5.20172
3 *146:ZN *25:5 0.001
4 *146:ZN *25:3 0.001
5 *25:3 *25:4 0.276288
*END

*D_NET *26 1.26314

*CONN
*P *91 B *C 80.3600 -1.0750
*I *147:ZN O *C 77.5600 1.4000 *D gf180mcu_fd_sc_mcu7t5v0__tiel

*CAP
1 *26:2 *90 0.117199
2 *26:2 *92 0.0472744
3 *26:2 *28:2 0.0422577
4 *26:2 *115:Z 0.0196556
5 *26:2 *117:Z 0.0241975
6 *91 0.296814
7 *26:2 0.462727
8 *26:3 0.131865
9 *26:4 0.121155
10 *26:5 0.0

*RES
1 *91 *26:2 0.789108
2 *147:ZN *26:2 5.2875
3 *147:ZN *26:5 0.001
4 *147:ZN *26:4 0.001
5 *26:3 *26:4 0.283788
*END

*D_NET *27 2.15501

*CONN
*P *92 B *C 83.7200 -1.0750
*I *148:ZN O *C 83.1600 6.4400 *D gf180mcu_fd_sc_mcu7t5v0__tiel

*CAP
1 *148:ZN *90 0.00532912
2 *92 *26:2 0.0472744
3 *92 *28:2 0.281537
4 *148:ZN *29:2 0.00721615
5 *148:ZN *116:Z 0.038599
6 *92 *117:Z 0.000692085
7 *92 0.226081
8 *148:ZN 0.307999
9 *27:2 0.117194
10 *27:3 0.142042
11 *27:4 0.981046
12 *27:5 0.0

*RES
1 *92 *27:4 5.20264
2 *148:ZN *27:4 10.8547
3 *148:ZN *27:5 0.001
4 *148:ZN *27:2 0.001
5 *27:2 *27:3 0.276288
*END

*D_NET *28 1.47977

*CONN
*P *93 B *C 87.5000 -0.3587
*I *149:ZN O *C 83.1600 1.4000 *D gf180mcu_fd_sc_mcu7t5v0__tiel

*CAP
1 *28:2 *26:2 0.0422577
2 *28:2 *92 0.281537
3 *28:2 *94 0.053951
4 *28:2 *117:Z 0.0376566
5 *28:2 *119:Z 0.0589511
6 *93 0.172064
7 *28:2 0.513124
8 *28:3 0.0826166
9 *28:4 0.126008
10 *28:5 0.111604
11 *28:6 0.0

*RES
1 *93 *28:3 0.112637
2 *149:ZN *28:2 5.75297
3 *149:ZN *28:6 0.001
4 *149:ZN *28:5 0.001
5 *28:2 *28:3 0.433527
6 *28:4 *28:5 0.283788
*END

*D_NET *29 2.19612

*CONN
*P *94 B *C 91.0000 -1.0750
*I *150:ZN O *C 89.8800 6.4400 *D gf180mcu_fd_sc_mcu7t5v0__tiel

*CAP
1 *29:2 *148:ZN 0.00721615
2 *94 *28:2 0.053951
3 *94 *30:2 0.400518
4 *29:2 *31:2 0.0099749
5 *29:2 *118:Z 0.0168747
6 *94 *119:Z 0.000628525
7 *94 *121:Z 0.000169049
8 *94 0.556499
9 *29:2 0.892003
10 *29:3 0.116269
11 *29:4 0.142019
12 *29:5 0.0

*RES
1 *94 *29:2 11.525
2 *150:ZN *29:2 4.68141
3 *150:ZN *29:5 0.001
4 *150:ZN *29:3 0.001
5 *29:3 *29:4 0.276288
*END

*D_NET *30 1.51051

*CONN
*P *95 B *C 94.3600 -1.0750
*I *151:ZN O *C 89.8800 1.4000 *D gf180mcu_fd_sc_mcu7t5v0__tiel

*CAP
1 *30:2 *94 0.400518
2 *30:2 *96 0.0537853
3 *30:2 *32:2 0.154644
4 *30:2 *119:Z 0.0151236
5 *30:2 *121:Z 0.00160022
6 *95 0.351798
7 *151:ZN 0.0946148
8 *30:2 0.208009
9 *30:3 0.122348
10 *30:4 0.108068
11 *30:5 0.0

*RES
1 *95 *30:2 1.58143
2 *151:ZN *30:2 5.06672
3 *151:ZN *30:5 0.001
4 *151:ZN *30:4 0.001
5 *30:3 *30:4 0.283788
*END

*D_NET *31 2.67153

*CONN
*P *96 B *C 97.7200 -1.0750
*I *152:ZN O *C 95.4800 6.4400 *D gf180mcu_fd_sc_mcu7t5v0__tiel

*CAP
1 *31:2 *29:2 0.0099749
2 *96 *30:2 0.0537853
3 *96 *32:2 0.497833
4 *31:2 *33:2 0.000766365
5 *31:2 *120:Z 0.0387255
6 *96 *121:Z 0.000653907
7 *96 0.839905
8 *31:2 0.969195
9 *31:3 0.117171
10 *31:4 0.143522
11 *31:5 0.0

*RES
1 *96 *31:2 11.9084
2 *152:ZN *31:2 4.67438
3 *152:ZN *31:5 0.001
4 *152:ZN *31:3 0.001
5 *31:3 *31:4 0.276288
*END

*D_NET *32 2.26566

*CONN
*P *97 B *C 101.6400 -1.0750
*I *153:ZN O *C 95.4800 1.4000 *D gf180mcu_fd_sc_mcu7t5v0__tiel

*CAP
1 *32:2 *30:2 0.154644
2 *32:2 *96 0.497833
3 *32:2 *98 0.0714541
4 *32:2 *34:2 0.229229
5 *32:2 *121:Z 0.0267962
6 *32:2 *124:Z 0.00175767
7 *97 0.505845
8 *32:2 0.549201
9 *32:3 0.120932
10 *32:4 0.107965
11 *32:5 0.0

*RES
1 *97 *32:2 1.68429
2 *153:ZN *32:5 0.001
3 *153:ZN *32:4 0.001
4 *153:ZN *32:2 5.44922
5 *32:3 *32:4 0.283788
*END

*D_NET *33 2.44116

*CONN
*P *98 B *C 105.0000 -1.0750
*I *155:ZN O *C 102.2000 6.4400 *D gf180mcu_fd_sc_mcu7t5v0__tiel

*CAP
1 *33:2 *31:2 0.000766365
2 *98 *32:2 0.0714541
3 *98 *34:2 0.523291
4 *33:2 *123:Z 0.0168619
5 *98 0.626893
6 *33:2 0.9435
7 *33:3 0.116377
8 *33:4 0.142019
9 *33:5 0.0

*RES
1 *98 *33:2 12.0869
2 *155:ZN *33:2 4.67016
3 *155:ZN *33:5 0.001
4 *155:ZN *33:3 0.001
5 *33:3 *33:4 0.276288
*END

*D_NET *34 2.04559

*CONN
*P *99 B *C 108.3600 -1.0750
*I *156:ZN O *C 102.2000 1.4000 *D gf180mcu_fd_sc_mcu7t5v0__tiel

*CAP
1 *34:2 *32:2 0.229229
2 *34:2 *98 0.523291
3 *34:2 *124:Z 0.0304499
4 *99 0.351724
5 *34:2 0.681051
6 *34:3 0.121931
7 *34:4 0.107919
8 *34:5 0.0

*RES
1 *99 *34:2 0.789108
2 *156:ZN *34:2 6.2325
3 *156:ZN *34:5 0.001
4 *156:ZN *34:4 0.001
5 *34:3 *34:4 0.283788
*END

*D_NET *36 0.803704

*CONN
*I *100:Z O *C 6.9100 5.8525 *D gf180mcu_fd_sc_mcu7t5v0__tieh

*CAP
1 *100:Z *3:2 0.0438689
2 *100:Z 0.759835
*END

*D_NET *37 0.757095

*CONN
*I *101:Z O *C 38.2700 5.8525 *D gf180mcu_fd_sc_mcu7t5v0__tieh

*CAP
1 *101:Z *13:2 0.0331785
2 *101:Z 0.723916
*END

*D_NET *38 0.700612

*CONN
*I *102:Z O *C 38.3600 2.3050 *D gf180mcu_fd_sc_mcu7t5v0__tieh

*CAP
1 *102:Z *14:2 0.0370349
2 *102:Z 0.663577
*END

*D_NET *39 0.752049

*CONN
*I *103:Z O *C 43.8700 5.8525 *D gf180mcu_fd_sc_mcu7t5v0__tieh

*CAP
1 *103:Z *80 0.0321242
2 *103:Z 0.719925
*END

*D_NET *40 0.661495

*CONN
*I *104:Z O *C 43.9600 2.3050 *D gf180mcu_fd_sc_mcu7t5v0__tieh

*CAP
1 *104:Z *16:2 0.0326974
2 *104:Z 0.628798
*END

*D_NET *41 0.752779

*CONN
*I *105:Z O *C 50.5900 5.8525 *D gf180mcu_fd_sc_mcu7t5v0__tieh

*CAP
1 *105:Z *82 0.0319224
2 *105:Z 0.720857
*END

*D_NET *42 0.662514

*CONN
*I *106:Z O *C 50.6800 2.3050 *D gf180mcu_fd_sc_mcu7t5v0__tieh

*CAP
1 *106:Z *18:2 0.032678
2 *106:Z 0.629836
*END

*D_NET *43 0.75991

*CONN
*I *107:Z O *C 56.1900 5.8525 *D gf180mcu_fd_sc_mcu7t5v0__tieh

*CAP
1 *107:Z *19:2 0.0339599
2 *107:Z 0.72595
*END

*D_NET *44 0.621616

*CONN
*I *108:Z O *C 56.2800 2.3050 *D gf180mcu_fd_sc_mcu7t5v0__tieh

*CAP
1 *108:Z *19:2 0.00335279
2 *108:Z *20:2 0.00422784
3 *108:Z 0.614035
*END

*D_NET *45 0.739769

*CONN
*I *109:Z O *C 62.9100 5.8525 *D gf180mcu_fd_sc_mcu7t5v0__tieh

*CAP
1 *109:Z *21:2 0.0112888
2 *109:Z 0.72848
*END

*D_NET *46 0.637526

*CONN
*I *110:Z O *C 63.0000 2.3050 *D gf180mcu_fd_sc_mcu7t5v0__tieh

*CAP
1 *110:Z *21:2 0.0180104
2 *110:Z *22:2 0.00422784
3 *110:Z 0.615288
*END

*D_NET *47 0.711936

*CONN
*I *111:Z O *C 7.0000 2.3050 *D gf180mcu_fd_sc_mcu7t5v0__tieh

*CAP
1 *111:Z *3:2 0.00464466
2 *111:Z *4:2 0.0266774
3 *111:Z *5:2 0.00438406
4 *111:Z 0.67623
*END

*D_NET *48 0.840592

*CONN
*I *112:Z O *C 68.5100 5.8525 *D gf180mcu_fd_sc_mcu7t5v0__tieh

*CAP
1 *112:Z *88 0.023709
2 *112:Z 0.816883
*END

*D_NET *49 0.854668

*CONN
*I *113:Z O *C 68.6000 2.3050 *D gf180mcu_fd_sc_mcu7t5v0__tieh

*CAP
1 *113:Z *88 0.00424822
2 *113:Z *24:2 0.0273253
3 *113:Z 0.823094
*END

*D_NET *50 0.838205

*CONN
*I *114:Z O *C 75.2300 5.8525 *D gf180mcu_fd_sc_mcu7t5v0__tieh

*CAP
1 *114:Z *90 0.0214395
2 *114:Z 0.816766
*END

*D_NET *51 0.827596

*CONN
*I *115:Z O *C 75.3200 2.3050 *D gf180mcu_fd_sc_mcu7t5v0__tieh

*CAP
1 *115:Z *90 0.00446919
2 *115:Z *26:2 0.0196556
3 *115:Z 0.803471
*END

*D_NET *52 0.791385

*CONN
*I *116:Z O *C 80.8300 5.8525 *D gf180mcu_fd_sc_mcu7t5v0__tieh

*CAP
1 *116:Z *148:ZN 0.038599
2 *116:Z 0.752786
*END

*D_NET *53 0.688602

*CONN
*I *117:Z O *C 80.9200 2.3050 *D gf180mcu_fd_sc_mcu7t5v0__tieh

*CAP
1 *117:Z *26:2 0.0241975
2 *117:Z *92 0.000692085
3 *117:Z *28:2 0.0376566
4 *117:Z 0.626056
*END

*D_NET *54 0.737272

*CONN
*I *118:Z O *C 87.5500 5.8525 *D gf180mcu_fd_sc_mcu7t5v0__tieh

*CAP
1 *118:Z *29:2 0.0168747
2 *118:Z 0.720397
*END

*D_NET *55 0.677946

*CONN
*I *119:Z O *C 87.6400 2.3050 *D gf180mcu_fd_sc_mcu7t5v0__tieh

*CAP
1 *119:Z *28:2 0.0589511
2 *119:Z *94 0.000628525
3 *119:Z *30:2 0.0151236
4 *119:Z 0.603243
*END

*D_NET *56 0.791813

*CONN
*I *120:Z O *C 93.1500 5.8525 *D gf180mcu_fd_sc_mcu7t5v0__tieh

*CAP
1 *120:Z *31:2 0.0387255
2 *120:Z 0.753088
*END

*D_NET *57 0.635751

*CONN
*I *121:Z O *C 93.2400 2.3050 *D gf180mcu_fd_sc_mcu7t5v0__tieh

*CAP
1 *121:Z *94 0.000169049
2 *121:Z *30:2 0.00160022
3 *121:Z *96 0.000653907
4 *121:Z *32:2 0.0267962
5 *121:Z 0.606531
*END

*D_NET *58 0.796851

*CONN
*I *122:Z O *C 13.6300 5.8525 *D gf180mcu_fd_sc_mcu7t5v0__tieh

*CAP
1 *122:Z *5:2 0.0413912
2 *122:Z 0.75546
*END

*D_NET *59 0.829637

*CONN
*I *123:Z O *C 99.8700 5.8525 *D gf180mcu_fd_sc_mcu7t5v0__tieh

*CAP
1 *123:Z *33:2 0.0168619
2 *123:Z 0.812775
*END

*D_NET *60 0.810777

*CONN
*I *124:Z O *C 99.9600 2.3050 *D gf180mcu_fd_sc_mcu7t5v0__tieh

*CAP
1 *124:Z *32:2 0.00175767
2 *124:Z *34:2 0.0304499
3 *124:Z 0.778569
*END

*D_NET *61 0.655763

*CONN
*I *125:Z O *C 13.7200 2.3050 *D gf180mcu_fd_sc_mcu7t5v0__tieh

*CAP
1 *125:Z *71 0.037629
2 *125:Z 0.618134
*END

*D_NET *62 0.747924

*CONN
*I *126:Z O *C 19.2300 5.8525 *D gf180mcu_fd_sc_mcu7t5v0__tieh

*CAP
1 *126:Z *7:2 0.0194326
2 *126:Z 0.728492
*END

*D_NET *63 0.751547

*CONN
*I *127:Z O *C 19.3200 2.3050 *D gf180mcu_fd_sc_mcu7t5v0__tieh

*CAP
1 *127:Z *8:2 0.0500851
2 *127:Z 0.701461
*END

*D_NET *64 0.777563

*CONN
*I *128:Z O *C 25.9500 5.8525 *D gf180mcu_fd_sc_mcu7t5v0__tieh

*CAP
1 *128:Z *9:2 0.0520991
2 *128:Z 0.725463
*END

*D_NET *65 0.674384

*CONN
*I *129:Z O *C 26.0400 2.3050 *D gf180mcu_fd_sc_mcu7t5v0__tieh

*CAP
1 *129:Z *10:2 0.039298
2 *129:Z 0.635086
*END

*D_NET *66 0.759792

*CONN
*I *130:Z O *C 31.5500 5.8525 *D gf180mcu_fd_sc_mcu7t5v0__tieh

*CAP
1 *130:Z *11:2 0.0263605
2 *130:Z 0.733432
*END

*D_NET *67 0.653046

*CONN
*I *131:Z O *C 31.6400 2.3050 *D gf180mcu_fd_sc_mcu7t5v0__tieh

*CAP
1 *131:Z *11:2 0.0010728
2 *131:Z *12:2 0.0444606
3 *131:Z 0.607513
*END
