*SPEF "IEEE 1481-1999"
*DESIGN "user_id_programming"
*DATE "Tue Dec  6 03:36:46 2022"
*VENDOR "Synopsys Inc."
*PROGRAM "StarRC"
*VERSION "T-2022.03-SP3"
*DESIGN_FLOW "PIN_CAP NONE" "NAME_SCOPE LOCAL"
*DIVIDER /
*DELIMITER :
*BUS_DELIMITER ()
*T_UNIT 1.0 NS
*C_UNIT 1.0 FF
*R_UNIT 1.0 OHM
*L_UNIT 1.0 HENRY

// COMMENTS

// CORNER_NAME 
// OPERATING_TEMPERATURE -40
// GLOBAL_TEMPERATURE 25
// TCAD_GRD_FILE /home/passant/gf180_timing/caravel-gf180mcu/scripts/gf180-tech/gf180mcu_1p5m_1tm_9k_sp_smim_OPTB_bst.nxtgrd
//   TCAD_TIME_STAMP Tue Dec 26 17:55:23 2017
//   TCADGRD_VERSION 75
// galaxy_comments_begin
//   local_nodeid
// galaxy_comments_end

*NAME_MAP
*68 mask_rev\[0\]
*69 mask_rev\[1\]
*70 mask_rev\[2\]
*71 mask_rev\[3\]
*72 mask_rev\[4\]
*73 mask_rev\[5\]
*74 mask_rev\[6\]
*75 mask_rev\[7\]
*76 mask_rev\[8\]
*77 mask_rev\[9\]
*78 mask_rev\[10\]
*79 mask_rev\[11\]
*80 mask_rev\[12\]
*81 mask_rev\[13\]
*82 mask_rev\[14\]
*83 mask_rev\[15\]
*84 mask_rev\[16\]
*85 mask_rev\[17\]
*86 mask_rev\[18\]
*87 mask_rev\[19\]
*88 mask_rev\[20\]
*89 mask_rev\[21\]
*90 mask_rev\[22\]
*91 mask_rev\[23\]
*92 mask_rev\[24\]
*93 mask_rev\[25\]
*94 mask_rev\[26\]
*95 mask_rev\[27\]
*96 mask_rev\[28\]
*97 mask_rev\[29\]
*98 mask_rev\[30\]
*99 mask_rev\[31\]
*100 mask_rev_value_one\[0\]
*101 mask_rev_value_one\[10\]
*102 mask_rev_value_one\[11\]
*103 mask_rev_value_one\[12\]
*104 mask_rev_value_one\[13\]
*105 mask_rev_value_one\[14\]
*106 mask_rev_value_one\[15\]
*107 mask_rev_value_one\[16\]
*108 mask_rev_value_one\[17\]
*109 mask_rev_value_one\[18\]
*110 mask_rev_value_one\[19\]
*111 mask_rev_value_one\[1\]
*112 mask_rev_value_one\[20\]
*113 mask_rev_value_one\[21\]
*114 mask_rev_value_one\[22\]
*115 mask_rev_value_one\[23\]
*116 mask_rev_value_one\[24\]
*117 mask_rev_value_one\[25\]
*118 mask_rev_value_one\[26\]
*119 mask_rev_value_one\[27\]
*120 mask_rev_value_one\[28\]
*121 mask_rev_value_one\[29\]
*122 mask_rev_value_one\[2\]
*123 mask_rev_value_one\[30\]
*124 mask_rev_value_one\[31\]
*125 mask_rev_value_one\[3\]
*126 mask_rev_value_one\[4\]
*127 mask_rev_value_one\[5\]
*128 mask_rev_value_one\[6\]
*129 mask_rev_value_one\[7\]
*130 mask_rev_value_one\[8\]
*131 mask_rev_value_one\[9\]
*132 mask_rev_value_zero\[0\]
*133 mask_rev_value_zero\[10\]
*134 mask_rev_value_zero\[11\]
*135 mask_rev_value_zero\[12\]
*136 mask_rev_value_zero\[13\]
*137 mask_rev_value_zero\[14\]
*138 mask_rev_value_zero\[15\]
*139 mask_rev_value_zero\[16\]
*140 mask_rev_value_zero\[17\]
*141 mask_rev_value_zero\[18\]
*142 mask_rev_value_zero\[19\]
*143 mask_rev_value_zero\[1\]
*144 mask_rev_value_zero\[20\]
*145 mask_rev_value_zero\[21\]
*146 mask_rev_value_zero\[22\]
*147 mask_rev_value_zero\[23\]
*148 mask_rev_value_zero\[24\]
*149 mask_rev_value_zero\[25\]
*150 mask_rev_value_zero\[26\]
*151 mask_rev_value_zero\[27\]
*152 mask_rev_value_zero\[28\]
*153 mask_rev_value_zero\[29\]
*154 mask_rev_value_zero\[2\]
*155 mask_rev_value_zero\[30\]
*156 mask_rev_value_zero\[31\]
*157 mask_rev_value_zero\[3\]
*158 mask_rev_value_zero\[4\]
*159 mask_rev_value_zero\[5\]
*160 mask_rev_value_zero\[6\]
*161 mask_rev_value_zero\[7\]
*162 mask_rev_value_zero\[8\]
*163 mask_rev_value_zero\[9\]
*3 mask_rev\[0\]
*4 mask_rev\[1\]
*5 mask_rev\[2\]
*6 mask_rev\[3\]
*7 mask_rev\[4\]
*8 mask_rev\[5\]
*9 mask_rev\[6\]
*10 mask_rev\[7\]
*11 mask_rev\[8\]
*12 mask_rev\[9\]
*13 mask_rev\[10\]
*14 mask_rev\[11\]
*15 mask_rev\[12\]
*16 mask_rev\[13\]
*17 mask_rev\[14\]
*18 mask_rev\[15\]
*19 mask_rev\[16\]
*20 mask_rev\[17\]
*21 mask_rev\[18\]
*22 mask_rev\[19\]
*23 mask_rev\[20\]
*24 mask_rev\[21\]
*25 mask_rev\[22\]
*26 mask_rev\[23\]
*27 mask_rev\[24\]
*28 mask_rev\[25\]
*29 mask_rev\[26\]
*30 mask_rev\[27\]
*31 mask_rev\[28\]
*32 mask_rev\[29\]
*33 mask_rev\[30\]
*34 mask_rev\[31\]
*36 user_proj_id_nc\[0\]
*37 user_proj_id_nc\[10\]
*38 user_proj_id_nc\[11\]
*39 user_proj_id_nc\[12\]
*40 user_proj_id_nc\[13\]
*41 user_proj_id_nc\[14\]
*42 user_proj_id_nc\[15\]
*43 user_proj_id_nc\[16\]
*44 user_proj_id_nc\[17\]
*45 user_proj_id_nc\[18\]
*46 user_proj_id_nc\[19\]
*47 user_proj_id_nc\[1\]
*48 user_proj_id_nc\[20\]
*49 user_proj_id_nc\[21\]
*50 user_proj_id_nc\[22\]
*51 user_proj_id_nc\[23\]
*52 user_proj_id_nc\[24\]
*53 user_proj_id_nc\[25\]
*54 user_proj_id_nc\[26\]
*55 user_proj_id_nc\[27\]
*56 user_proj_id_nc\[28\]
*57 user_proj_id_nc\[29\]
*58 user_proj_id_nc\[2\]
*59 user_proj_id_nc\[30\]
*60 user_proj_id_nc\[31\]
*61 user_proj_id_nc\[3\]
*62 user_proj_id_nc\[4\]
*63 user_proj_id_nc\[5\]
*64 user_proj_id_nc\[6\]
*65 user_proj_id_nc\[7\]
*66 user_proj_id_nc\[8\]
*67 user_proj_id_nc\[9\]

*PORTS

*68 B
*69 B
*70 B
*71 B
*72 B
*73 B
*74 B
*75 B
*76 B
*77 B
*78 B
*79 B
*80 B
*81 B
*82 B
*83 B
*84 B
*85 B
*86 B
*87 B
*88 B
*89 B
*90 B
*91 B
*92 B
*93 B
*94 B
*95 B
*96 B
*97 B
*98 B
*99 B

*D_NET *3 2.09318

*CONN
*P *68 B *C 0.2800 -1.0750
*I *132:ZN O *C 9.2400 6.4400 *D gf180mcu_fd_sc_mcu7t5v0__tiel

*CAP
1 *3:2 *4:2 0.206648
2 *3:2 *5:2 0.00451847
3 *3:2 *100:Z 0.0391007
4 *3:2 *111:Z 0.0043438
5 *68 0.216679
6 *132:ZN 0.0732819
7 *3:2 1.30507
8 *3:3 0.111083
9 *3:4 0.132447
10 *3:5 0.0

*RES
1 *68 *3:2 1.89279
2 *132:ZN *3:2 5.88877
3 *132:ZN *3:5 0.001
4 *132:ZN *3:3 0.001
5 *3:3 *3:4 0.190847
*END

*D_NET *4 1.34328

*CONN
*P *69 B *C 3.6400 -1.0750
*I *143:ZN O *C 9.2400 1.4000 *D gf180mcu_fd_sc_mcu7t5v0__tiel

*CAP
1 *4:2 *3:2 0.206648
2 *4:2 *5:2 0.166045
3 *4:2 *111:Z 0.0237716
4 *69 0.269362
5 *4:2 0.435728
6 *4:3 0.124437
7 *4:4 0.117291
8 *4:5 0.0

*RES
1 *69 *4:2 0.54508
2 *143:ZN *4:2 5.32177
3 *143:ZN *4:5 0.001
4 *143:ZN *4:4 0.001
5 *4:3 *4:4 0.196028
*END

*D_NET *5 2.3693

*CONN
*P *70 B *C 7.5600 -1.0750
*I *154:ZN O *C 15.9600 6.4400 *D gf180mcu_fd_sc_mcu7t5v0__tiel

*CAP
1 *5:2 *3:2 0.00451847
2 *5:2 *4:2 0.166045
3 *5:2 *71 0.205591
4 *5:2 *6:6 0.0162993
5 *5:2 *7:2 0.0676085
6 *5:2 *111:Z 0.00360091
7 *5:2 *122:Z 0.0368628
8 *70 0.233721
9 *154:ZN 0.0750133
10 *5:2 1.3178
11 *5:3 0.109798
12 *5:4 0.132445
13 *5:5 0.0

*RES
1 *70 *5:2 1.36103
2 *154:ZN *5:5 0.001
3 *154:ZN *5:2 6.28828
4 *154:ZN *5:3 0.001
5 *5:3 *5:4 0.190847
*END

*D_NET *6 1.39102

*CONN
*P *71 B *C 11.0600 -0.0700
*I *157:ZN O *C 15.9600 1.4000 *D gf180mcu_fd_sc_mcu7t5v0__tiel

*CAP
1 *71 *5:2 0.205591
2 *6:6 *5:2 0.0162993
3 *71 *72 0.108336
4 *71 *7:2 0.118512
5 *6:6 *72 0.03043
6 *71 *125:Z 0.0336044
7 *71 0.228801
8 *6:2 0.293136
9 *6:3 0.115893
10 *6:4 0.116566
11 *6:6 0.123851

*RES
1 *71 *6:2 0.731584
2 *71 *6:6 0.001
3 *157:ZN *6:2 4.83122
4 *157:ZN *6:5 0.001
5 *157:ZN *6:4 0.001
6 *6:3 *6:4 0.196028
*END

*D_NET *7 1.95998

*CONN
*P *72 B *C 14.2800 -1.0750
*I *158:ZN O *C 21.5600 6.4400 *D gf180mcu_fd_sc_mcu7t5v0__tiel

*CAP
1 *7:2 *5:2 0.0676085
2 *72 *71 0.108336
3 *7:2 *71 0.118512
4 *72 *6:6 0.03043
5 *72 *8:2 0.0406815
6 *7:2 *8:2 0.125238
7 *7:2 *9:2 0.0325472
8 *7:2 *126:Z 0.0171926
9 *72 0.0378446
10 *158:ZN 0.112086
11 *7:2 1.02595
12 *7:3 0.111083
13 *7:4 0.13247
14 *7:5 0.0

*RES
1 *72 *7:2 0.807074
2 *158:ZN *7:2 6.57345
3 *158:ZN *7:5 0.001
4 *158:ZN *7:3 0.001
5 *7:3 *7:4 0.190847
*END

*D_NET *8 1.07775

*CONN
*P *73 B *C 17.6400 -1.0750
*I *159:ZN O *C 21.5600 1.4000 *D gf180mcu_fd_sc_mcu7t5v0__tiel

*CAP
1 *8:2 *72 0.0406815
2 *8:2 *7:2 0.125238
3 *8:2 *74 0.107787
4 *8:2 *9:2 0.0227582
5 *8:2 *127:Z 0.0449129
6 *73 0.240709
7 *8:2 0.257847
8 *8:3 0.120661
9 *8:4 0.117159
10 *8:5 0.0

*RES
1 *73 *8:2 0.54508
2 *159:ZN *8:5 0.001
3 *159:ZN *8:4 0.001
4 *159:ZN *8:2 4.99538
5 *8:3 *8:4 0.196028
*END

*D_NET *9 1.84357

*CONN
*P *74 B *C 21.0000 -1.0750
*I *160:ZN O *C 28.2800 6.4400 *D gf180mcu_fd_sc_mcu7t5v0__tiel

*CAP
1 *9:2 *7:2 0.0325472
2 *74 *8:2 0.107787
3 *9:2 *8:2 0.0227582
4 *74 *10:2 0.0369267
5 *9:2 *10:2 0.0190656
6 *9:2 *11:2 0.0424911
7 *9:2 *128:Z 0.046543
8 *74 0.0555656
9 *160:ZN 0.0958645
10 *9:2 1.13255
11 *9:3 0.119026
12 *9:4 0.132445
13 *9:5 0.0

*RES
1 *74 *9:2 0.994688
2 *160:ZN *9:2 6.39736
3 *160:ZN *9:5 0.001
4 *160:ZN *9:3 0.001
5 *9:3 *9:4 0.190847
*END

*D_NET *10 1.03084

*CONN
*P *75 B *C 24.9200 -1.0750
*I *161:ZN O *C 28.2800 1.4000 *D gf180mcu_fd_sc_mcu7t5v0__tiel

*CAP
1 *10:2 *74 0.0369267
2 *10:2 *9:2 0.0190656
3 *10:2 *11:2 0.108316
4 *10:2 *129:Z 0.0350983
5 *75 0.304802
6 *10:2 0.297211
7 *10:3 0.113417
8 *10:4 0.116004
9 *10:5 0.0

*RES
1 *75 *10:2 0.54508
2 *161:ZN *10:2 4.88659
3 *161:ZN *10:5 0.001
4 *161:ZN *10:4 0.001
5 *10:3 *10:4 0.196028
*END

*D_NET *11 1.9942

*CONN
*P *76 B *C 28.2800 -1.0750
*I *162:ZN O *C 33.8800 6.4400 *D gf180mcu_fd_sc_mcu7t5v0__tiel

*CAP
1 *11:2 *9:2 0.0424911
2 *11:2 *10:2 0.108316
3 *11:2 *12:2 0.0848523
4 *11:2 *13:2 0.0495862
5 *11:2 *130:Z 0.0234479
6 *11:2 *131:Z 0.00100266
7 *76 0.0921156
8 *162:ZN 0.0732688
9 *11:2 1.27614
10 *11:3 0.110516
11 *11:4 0.13247
12 *11:5 0.0

*RES
1 *76 *11:2 0.801523
2 *162:ZN *11:2 6.24624
3 *162:ZN *11:5 0.001
4 *162:ZN *11:3 0.001
5 *11:3 *11:4 0.190847
*END

*D_NET *12 0.928544

*CONN
*P *77 B *C 31.6400 -1.0750
*I *163:ZN O *C 33.8800 1.4000 *D gf180mcu_fd_sc_mcu7t5v0__tiel

*CAP
1 *12:2 *11:2 0.0848523
2 *12:2 *78 0.0401326
3 *12:2 *131:Z 0.0397873
4 *77 0.269293
5 *12:2 0.239467
6 *12:3 0.127459
7 *12:4 0.127552
8 *12:5 0.0

*RES
1 *77 *12:2 0.54508
2 *163:ZN *12:2 4.669
3 *163:ZN *12:5 0.001
4 *163:ZN *12:4 0.001
5 *12:3 *12:4 0.196028
*END

*D_NET *13 1.67438

*CONN
*P *78 B *C 35.0000 -1.0750
*I *133:ZN O *C 40.6000 6.4400 *D gf180mcu_fd_sc_mcu7t5v0__tiel

*CAP
1 *13:2 *11:2 0.0495862
2 *78 *12:2 0.0401326
3 *78 *14:2 0.0472443
4 *13:2 *80 0.0248042
5 *13:2 *101:Z 0.0294621
6 *78 0.775139
7 *13:2 0.465706
8 *13:3 0.109863
9 *13:4 0.132445
10 *13:5 0.0

*RES
1 *78 *13:2 1.6641
2 *133:ZN *13:5 0.001
3 *133:ZN *13:2 5.32177
4 *133:ZN *13:3 0.001
5 *13:3 *13:4 0.190847
*END

*D_NET *14 0.792449

*CONN
*P *79 B *C 38.9200 -1.0750
*I *134:ZN O *C 40.6000 1.4000 *D gf180mcu_fd_sc_mcu7t5v0__tiel

*CAP
1 *14:2 *78 0.0472443
2 *14:2 *80 0.0654581
3 *14:2 *102:Z 0.031322
4 *79 0.245713
5 *14:2 0.159197
6 *14:3 0.127652
7 *14:4 0.115863
8 *14:5 0.0

*RES
1 *79 *14:2 0.54508
2 *134:ZN *14:2 4.56021
3 *134:ZN *14:5 0.001
4 *134:ZN *14:4 0.001
5 *14:3 *14:4 0.196028
*END

*D_NET *15 1.44015

*CONN
*P *80 B *C 42.2800 -1.0750
*I *135:ZN O *C 46.2000 6.4400 *D gf180mcu_fd_sc_mcu7t5v0__tiel

*CAP
1 *80 *13:2 0.0248042
2 *80 *14:2 0.0654581
3 *80 *16:2 0.0583659
4 *80 *82 0.0123045
5 *80 *103:Z 0.0285601
6 *80 0.701245
7 *15:2 0.305867
8 *15:3 0.111071
9 *15:4 0.13247
10 *15:5 0.0

*RES
1 *80 *15:2 1.6641
2 *135:ZN *15:2 4.99538
3 *135:ZN *15:5 0.001
4 *135:ZN *15:3 0.001
5 *15:3 *15:4 0.190847
*END

*D_NET *16 0.86526

*CONN
*P *81 B *C 45.6400 -1.0750
*I *136:ZN O *C 46.2000 1.4000 *D gf180mcu_fd_sc_mcu7t5v0__tiel

*CAP
1 *16:2 *80 0.0583659
2 *16:2 *82 0.0527573
3 *16:2 *104:Z 0.0291356
4 *81 0.257788
5 *16:2 0.226367
6 *16:3 0.123631
7 *16:4 0.117215
8 *16:5 0.0

*RES
1 *81 *16:2 0.54508
2 *136:ZN *16:5 0.001
3 *136:ZN *16:4 0.001
4 *136:ZN *16:2 4.34262
5 *16:3 *16:4 0.196028
*END

*D_NET *17 1.44735

*CONN
*P *82 B *C 49.0000 -1.0750
*I *137:ZN O *C 52.9200 6.4400 *D gf180mcu_fd_sc_mcu7t5v0__tiel

*CAP
1 *82 *80 0.0123045
2 *82 *16:2 0.0527573
3 *82 *18:2 0.0622535
4 *82 *19:2 0.00167504
5 *82 *105:Z 0.0283456
6 *82 0.708065
7 *17:2 0.33311
8 *17:3 0.110398
9 *17:4 0.138439
10 *17:5 0.0

*RES
1 *82 *17:2 1.6641
2 *137:ZN *17:2 4.99538
3 *137:ZN *17:5 0.001
4 *137:ZN *17:3 0.001
5 *17:3 *17:4 0.190847
*END

*D_NET *18 0.894669

*CONN
*P *83 B *C 52.3600 -1.0750
*I *138:ZN O *C 52.9200 1.4000 *D gf180mcu_fd_sc_mcu7t5v0__tiel

*CAP
1 *18:2 *82 0.0622535
2 *18:2 *19:2 0.0231992
3 *18:2 *106:Z 0.0291191
4 *83 0.265105
5 *18:2 0.271748
6 *18:3 0.127229
7 *18:4 0.116015
8 *18:5 0.0

*RES
1 *83 *18:2 0.54508
2 *138:ZN *18:2 4.34262
3 *138:ZN *18:5 0.001
4 *138:ZN *18:4 0.001
5 *18:3 *18:4 0.196028
*END

*D_NET *19 1.47721

*CONN
*P *84 B *C 56.2800 -1.0750
*I *139:ZN O *C 58.5200 6.4400 *D gf180mcu_fd_sc_mcu7t5v0__tiel

*CAP
1 *19:2 *82 0.00167504
2 *19:2 *18:2 0.0231992
3 *19:2 *20:2 0.0688428
4 *19:2 *21:2 0.00644415
5 *19:2 *107:Z 0.0309125
6 *19:2 *108:Z 0.00367007
7 *84 0.363408
8 *139:ZN 0.0354411
9 *19:2 0.70005
10 *19:3 0.111096
11 *19:4 0.13247
12 *19:5 0.0

*RES
1 *84 *19:2 0.874792
2 *139:ZN *19:2 5.45276
3 *139:ZN *19:5 0.001
4 *139:ZN *19:3 0.001
5 *19:3 *19:4 0.190847
*END

*D_NET *20 0.905169

*CONN
*P *85 B *C 59.6400 -1.0750
*I *140:ZN O *C 58.5200 1.4000 *D gf180mcu_fd_sc_mcu7t5v0__tiel

*CAP
1 *20:2 *19:2 0.0688428
2 *20:2 *21:2 0.041599
3 *20:2 *108:Z 0.00418223
4 *85 0.26939
5 *20:2 0.279746
6 *20:3 0.125624
7 *20:4 0.115786
8 *20:5 0.0

*RES
1 *85 *20:2 0.54508
2 *140:ZN *20:2 4.45141
3 *140:ZN *20:5 0.001
4 *140:ZN *20:4 0.001
5 *20:3 *20:4 0.196028
*END

*D_NET *21 1.52667

*CONN
*P *86 B *C 62.8600 -0.1300
*I *141:ZN O *C 65.2400 6.4400 *D gf180mcu_fd_sc_mcu7t5v0__tiel

*CAP
1 *21:2 *19:2 0.00644415
2 *21:2 *20:2 0.041599
3 *21:2 *22:2 0.071577
4 *21:2 *88 0.022595
5 *21:2 *109:Z 0.0102694
6 *21:2 *110:Z 0.0160661
7 *86 0.0468599
8 *141:ZN 0.032275
9 *21:2 0.558642
10 *21:3 0.0455082
11 *21:4 0.110398
12 *21:5 0.132445
13 *21:7 0.431988

*RES
1 *86 *21:3 0.001
2 *141:ZN *21:6 0.001
3 *141:ZN *21:2 5.4239
4 *141:ZN *21:4 0.001
5 *21:2 *21:7 0.671463
6 *21:3 *21:7 0.001
7 *21:4 *21:5 0.190847
*END

*D_NET *22 0.810128

*CONN
*P *87 B *C 66.3600 -1.0750
*I *142:ZN O *C 65.2400 1.4000 *D gf180mcu_fd_sc_mcu7t5v0__tiel

*CAP
1 *22:2 *21:2 0.071577
2 *22:2 *88 0.0735996
3 *22:2 *110:Z 0.00418223
4 *87 0.208542
5 *22:2 0.209938
6 *22:3 0.125618
7 *22:4 0.116671
8 *22:5 0.0

*RES
1 *87 *22:2 0.54508
2 *142:ZN *22:2 4.45141
3 *142:ZN *22:5 0.001
4 *142:ZN *22:4 0.001
5 *22:3 *22:4 0.196028
*END

*D_NET *23 1.63557

*CONN
*P *88 B *C 70.1400 -0.0675
*I *144:ZN O *C 70.8400 6.4400 *D gf180mcu_fd_sc_mcu7t5v0__tiel

*CAP
1 *88 *21:2 0.022595
2 *88 *22:2 0.0735996
3 *88 *24:2 0.132567
4 *88 *90 0.00696583
5 *88 *112:Z 0.0214069
6 *88 *113:Z 0.00433354
7 *88 0.532544
8 *23:2 0.435322
9 *23:3 0.111096
10 *23:4 0.13247
11 *23:6 0.162671

*RES
1 *88 *23:6 0.001
2 *88 *23:2 1.85283
3 *144:ZN *23:2 4.72728
4 *144:ZN *23:5 0.001
5 *144:ZN *23:3 0.001
6 *23:3 *23:4 0.190847
*END

*D_NET *24 1.14228

*CONN
*P *89 B *C 73.6400 -1.0750
*I *145:ZN O *C 70.8400 1.4000 *D gf180mcu_fd_sc_mcu7t5v0__tiel

*CAP
1 *24:2 *88 0.132567
2 *24:2 *90 0.0695111
3 *24:2 *113:Z 0.024851
4 *89 0.262593
5 *24:2 0.413569
6 *24:3 0.123398
7 *24:4 0.115786
8 *24:5 0.0

*RES
1 *89 *24:2 0.54508
2 *145:ZN *24:5 0.001
3 *145:ZN *24:4 0.001
4 *145:ZN *24:2 4.7778
5 *24:3 *24:4 0.196028
*END

*D_NET *25 1.76473

*CONN
*P *90 B *C 77.0000 -1.0750
*I *146:ZN O *C 77.5600 6.4400 *D gf180mcu_fd_sc_mcu7t5v0__tiel

*CAP
1 *90 *88 0.00696583
2 *90 *24:2 0.0695111
3 *90 *26:2 0.111505
4 *90 *148:ZN 0.00541697
5 *90 *114:Z 0.0192439
6 *90 *115:Z 0.00455736
7 *90 0.633935
8 *25:2 0.671023
9 *25:3 0.110411
10 *25:4 0.132159
11 *25:5 0.0

*RES
1 *90 *25:2 2.09373
2 *146:ZN *25:2 4.71854
3 *146:ZN *25:5 0.001
4 *146:ZN *25:3 0.001
5 *25:3 *25:4 0.190847
*END

*D_NET *26 1.16743

*CONN
*P *91 B *C 80.3600 -1.0750
*I *147:ZN O *C 77.5600 1.4000 *D gf180mcu_fd_sc_mcu7t5v0__tiel

*CAP
1 *26:2 *90 0.111505
2 *26:2 *92 0.04572
3 *26:2 *28:2 0.0392875
4 *26:2 *115:Z 0.0177549
5 *26:2 *117:Z 0.0223734
6 *91 0.27574
7 *26:2 0.417358
8 *26:3 0.12329
9 *26:4 0.1144
10 *26:5 0.0

*RES
1 *91 *26:2 0.54508
2 *147:ZN *26:2 4.7778
3 *147:ZN *26:5 0.001
4 *147:ZN *26:4 0.001
5 *26:3 *26:4 0.196028
*END

*D_NET *27 1.96521

*CONN
*P *92 B *C 83.7200 -1.0750
*I *148:ZN O *C 83.1600 6.4400 *D gf180mcu_fd_sc_mcu7t5v0__tiel

*CAP
1 *148:ZN *90 0.00541697
2 *92 *26:2 0.04572
3 *92 *28:2 0.250362
4 *148:ZN *29:2 0.00728938
5 *148:ZN *116:Z 0.0342723
6 *92 *117:Z 0.000900975
7 *92 0.21967
8 *148:ZN 0.282616
9 *27:2 0.110613
10 *27:3 0.875884
11 *27:4 0.13247
12 *27:5 0.0

*RES
1 *92 *27:3 4.71918
2 *148:ZN *27:3 9.74877
3 *148:ZN *27:5 0.001
4 *148:ZN *27:2 0.001
5 *27:2 *27:4 0.190847
*END

*D_NET *28 1.35466

*CONN
*P *93 B *C 87.5000 -0.3587
*I *149:ZN O *C 83.1600 1.4000 *D gf180mcu_fd_sc_mcu7t5v0__tiel

*CAP
1 *28:2 *26:2 0.0392875
2 *28:2 *92 0.250362
3 *28:2 *94 0.0523467
4 *28:2 *117:Z 0.0336391
5 *28:2 *119:Z 0.0523554
6 *93 0.0474819
7 *28:2 0.469792
8 *28:3 0.117879
9 *28:4 0.105375
10 *28:6 0.186139

*RES
1 *93 *28:6 0.0781128
2 *149:ZN *28:2 5.09932
3 *149:ZN *28:5 0.001
4 *149:ZN *28:4 0.001
5 *28:2 *28:6 0.299461
6 *28:3 *28:4 0.196028
*END

*D_NET *29 2.0125

*CONN
*P *94 B *C 91.0000 -1.0750
*I *150:ZN O *C 89.8800 6.4400 *D gf180mcu_fd_sc_mcu7t5v0__tiel

*CAP
1 *29:2 *148:ZN 0.00728938
2 *94 *28:2 0.0523467
3 *94 *30:2 0.357574
4 *29:2 *31:2 0.0099823
5 *29:2 *118:Z 0.0147884
6 *94 *119:Z 0.00082389
7 *94 *121:Z 0.00022583
8 *94 0.50198
9 *29:2 0.825204
10 *29:3 0.109841
11 *29:4 0.132445
12 *29:5 0.0

*RES
1 *94 *29:2 10.2118
2 *150:ZN *29:2 4.35913
3 *150:ZN *29:5 0.001
4 *150:ZN *29:3 0.001
5 *29:3 *29:4 0.190847
*END

*D_NET *30 1.38434

*CONN
*P *95 B *C 94.3600 -1.0750
*I *151:ZN O *C 89.8800 1.4000 *D gf180mcu_fd_sc_mcu7t5v0__tiel

*CAP
1 *30:2 *94 0.357574
2 *30:2 *96 0.0522896
3 *30:2 *32:2 0.144154
4 *30:2 *119:Z 0.0139077
5 *30:2 *121:Z 0.00147354
6 *95 0.322071
7 *30:2 0.273002
8 *30:3 0.114379
9 *30:4 0.105488
10 *30:5 0.0

*RES
1 *95 *30:2 1.09238
2 *151:ZN *30:2 4.62529
3 *151:ZN *30:5 0.001
4 *151:ZN *30:4 0.001
5 *30:3 *30:4 0.196028
*END

*D_NET *31 2.43268

*CONN
*P *96 B *C 97.7200 -1.0750
*I *152:ZN O *C 95.4800 6.4400 *D gf180mcu_fd_sc_mcu7t5v0__tiel

*CAP
1 *31:2 *29:2 0.0099823
2 *96 *30:2 0.0522896
3 *96 *32:2 0.437058
4 *31:2 *33:2 0.000927696
5 *31:2 *120:Z 0.0343981
6 *96 *121:Z 0.000854723
7 *96 0.765783
8 *31:2 0.886769
9 *31:3 0.110591
10 *31:4 0.134027
11 *31:5 0.0

*RES
1 *96 *31:2 10.4766
2 *152:ZN *31:2 4.35428
3 *152:ZN *31:5 0.001
4 *152:ZN *31:3 0.001
5 *31:3 *31:4 0.190847
*END

*D_NET *32 2.04587

*CONN
*P *97 B *C 101.6400 -1.0750
*I *153:ZN O *C 95.4800 1.4000 *D gf180mcu_fd_sc_mcu7t5v0__tiel

*CAP
1 *32:2 *30:2 0.144154
2 *32:2 *96 0.437058
3 *32:2 *98 0.0684564
4 *32:2 *34:2 0.206508
5 *32:2 *121:Z 0.0238024
6 *32:2 *124:Z 0.00159792
7 *97 0.456341
8 *32:2 0.489449
9 *32:3 0.113049
10 *32:4 0.105455
11 *32:5 0.0

*RES
1 *97 *32:2 1.16343
2 *153:ZN *32:5 0.001
3 *153:ZN *32:4 0.001
4 *153:ZN *32:2 4.8895
5 *32:3 *32:4 0.196028
*END

*D_NET *33 2.23433

*CONN
*P *98 B *C 105.0000 -1.0750
*I *155:ZN O *C 102.2000 6.4400 *D gf180mcu_fd_sc_mcu7t5v0__tiel

*CAP
1 *33:2 *31:2 0.000927696
2 *98 *32:2 0.0684564
3 *98 *34:2 0.465642
4 *33:2 *123:Z 0.0147776
5 *98 0.577204
6 *33:2 0.864935
7 *33:3 0.109944
8 *33:4 0.132445
9 *33:5 0.0

*RES
1 *98 *33:2 10.5999
2 *155:ZN *33:2 4.35136
3 *155:ZN *33:5 0.001
4 *155:ZN *33:3 0.001
5 *33:3 *33:4 0.190847
*END

*D_NET *34 1.86023

*CONN
*P *99 B *C 108.3600 -1.0750
*I *156:ZN O *C 102.2000 1.4000 *D gf180mcu_fd_sc_mcu7t5v0__tiel

*CAP
1 *34:2 *32:2 0.206508
2 *34:2 *98 0.465642
3 *34:2 *124:Z 0.0270797
4 *99 0.324383
5 *34:2 0.617168
6 *34:3 0.114089
7 *34:4 0.105359
8 *34:5 0.0

*RES
1 *99 *34:2 0.54508
2 *156:ZN *34:2 5.43056
3 *156:ZN *34:5 0.001
4 *156:ZN *34:4 0.001
5 *34:3 *34:4 0.196028
*END

*D_NET *36 0.72453

*CONN
*I *100:Z O *C 6.9100 5.8525 *D gf180mcu_fd_sc_mcu7t5v0__tieh

*CAP
1 *100:Z *3:2 0.0391007
2 *100:Z 0.685429
*END

*D_NET *37 0.681328

*CONN
*I *101:Z O *C 38.2700 5.8525 *D gf180mcu_fd_sc_mcu7t5v0__tieh

*CAP
1 *101:Z *13:2 0.0294621
2 *101:Z 0.651866
*END

*D_NET *38 0.632533

*CONN
*I *102:Z O *C 38.3600 2.3050 *D gf180mcu_fd_sc_mcu7t5v0__tieh

*CAP
1 *102:Z *14:2 0.031322
2 *102:Z 0.601211
*END

*D_NET *39 0.676565

*CONN
*I *103:Z O *C 43.8700 5.8525 *D gf180mcu_fd_sc_mcu7t5v0__tieh

*CAP
1 *103:Z *80 0.0285601
2 *103:Z 0.648005
*END

*D_NET *40 0.603852

*CONN
*I *104:Z O *C 43.9600 2.3050 *D gf180mcu_fd_sc_mcu7t5v0__tieh

*CAP
1 *104:Z *16:2 0.0291356
2 *104:Z 0.574716
*END

*D_NET *41 0.677285

*CONN
*I *105:Z O *C 50.5900 5.8525 *D gf180mcu_fd_sc_mcu7t5v0__tieh

*CAP
1 *105:Z *82 0.0283456
2 *105:Z 0.648939
*END

*D_NET *42 0.604856

*CONN
*I *106:Z O *C 50.6800 2.3050 *D gf180mcu_fd_sc_mcu7t5v0__tieh

*CAP
1 *106:Z *18:2 0.0291191
2 *106:Z 0.575737
*END

*D_NET *43 0.68363

*CONN
*I *107:Z O *C 56.1900 5.8525 *D gf180mcu_fd_sc_mcu7t5v0__tieh

*CAP
1 *107:Z *19:2 0.0309125
2 *107:Z 0.652717
*END

*D_NET *44 0.56686

*CONN
*I *108:Z O *C 56.2800 2.3050 *D gf180mcu_fd_sc_mcu7t5v0__tieh

*CAP
1 *108:Z *19:2 0.00367007
2 *108:Z *20:2 0.00418223
3 *108:Z 0.559008
*END

*D_NET *45 0.665358

*CONN
*I *109:Z O *C 62.9100 5.8525 *D gf180mcu_fd_sc_mcu7t5v0__tieh

*CAP
1 *109:Z *21:2 0.0102694
2 *109:Z 0.655088
*END

*D_NET *46 0.581109

*CONN
*I *110:Z O *C 63.0000 2.3050 *D gf180mcu_fd_sc_mcu7t5v0__tieh

*CAP
1 *110:Z *21:2 0.0160661
2 *110:Z *22:2 0.00418223
3 *110:Z 0.56086
*END

*D_NET *47 0.640007

*CONN
*I *111:Z O *C 7.0000 2.3050 *D gf180mcu_fd_sc_mcu7t5v0__tieh

*CAP
1 *111:Z *3:2 0.0043438
2 *111:Z *4:2 0.0237716
3 *111:Z *5:2 0.00360091
4 *111:Z 0.60829
*END

*D_NET *48 0.757532

*CONN
*I *112:Z O *C 68.5100 5.8525 *D gf180mcu_fd_sc_mcu7t5v0__tieh

*CAP
1 *112:Z *88 0.0214069
2 *112:Z 0.736125
*END

*D_NET *49 0.769058

*CONN
*I *113:Z O *C 68.6000 2.3050 *D gf180mcu_fd_sc_mcu7t5v0__tieh

*CAP
1 *113:Z *88 0.00433354
2 *113:Z *24:2 0.024851
3 *113:Z 0.739873
*END

*D_NET *50 0.755463

*CONN
*I *114:Z O *C 75.2300 5.8525 *D gf180mcu_fd_sc_mcu7t5v0__tieh

*CAP
1 *114:Z *90 0.0192439
2 *114:Z 0.736219
*END

*D_NET *51 0.7442

*CONN
*I *115:Z O *C 75.3200 2.3050 *D gf180mcu_fd_sc_mcu7t5v0__tieh

*CAP
1 *115:Z *90 0.00455736
2 *115:Z *26:2 0.0177549
3 *115:Z 0.721887
*END

*D_NET *52 0.711698

*CONN
*I *116:Z O *C 80.8300 5.8525 *D gf180mcu_fd_sc_mcu7t5v0__tieh

*CAP
1 *116:Z *148:ZN 0.0342723
2 *116:Z 0.677426
*END

*D_NET *53 0.628846

*CONN
*I *117:Z O *C 80.9200 2.3050 *D gf180mcu_fd_sc_mcu7t5v0__tieh

*CAP
1 *117:Z *26:2 0.0223734
2 *117:Z *92 0.000900975
3 *117:Z *28:2 0.0336391
4 *117:Z 0.571933
*END

*D_NET *54 0.663232

*CONN
*I *118:Z O *C 87.5500 5.8525 *D gf180mcu_fd_sc_mcu7t5v0__tieh

*CAP
1 *118:Z *29:2 0.0147884
2 *118:Z 0.648444
*END

*D_NET *55 0.620277

*CONN
*I *119:Z O *C 87.6400 2.3050 *D gf180mcu_fd_sc_mcu7t5v0__tieh

*CAP
1 *119:Z *28:2 0.0523554
2 *119:Z *94 0.00082389
3 *119:Z *30:2 0.0139077
4 *119:Z 0.55319
*END

*D_NET *56 0.712105

*CONN
*I *120:Z O *C 93.1500 5.8525 *D gf180mcu_fd_sc_mcu7t5v0__tieh

*CAP
1 *120:Z *31:2 0.0343981
2 *120:Z 0.677707
*END

*D_NET *57 0.58063

*CONN
*I *121:Z O *C 93.2400 2.3050 *D gf180mcu_fd_sc_mcu7t5v0__tieh

*CAP
1 *121:Z *94 0.00022583
2 *121:Z *30:2 0.00147354
3 *121:Z *96 0.000854723
4 *121:Z *32:2 0.0238024
5 *121:Z 0.554274
*END

*D_NET *58 0.716835

*CONN
*I *122:Z O *C 13.6300 5.8525 *D gf180mcu_fd_sc_mcu7t5v0__tieh

*CAP
1 *122:Z *5:2 0.0368628
2 *122:Z 0.679973
*END

*D_NET *59 0.748995

*CONN
*I *123:Z O *C 99.8700 5.8525 *D gf180mcu_fd_sc_mcu7t5v0__tieh

*CAP
1 *123:Z *33:2 0.0147776
2 *123:Z 0.734218
*END

*D_NET *60 0.731117

*CONN
*I *124:Z O *C 99.9600 2.3050 *D gf180mcu_fd_sc_mcu7t5v0__tieh

*CAP
1 *124:Z *32:2 0.00159792
2 *124:Z *34:2 0.0270797
3 *124:Z 0.702439
*END

*D_NET *61 0.600063

*CONN
*I *125:Z O *C 13.7200 2.3050 *D gf180mcu_fd_sc_mcu7t5v0__tieh

*CAP
1 *125:Z *71 0.0336044
2 *125:Z 0.566458
*END

*D_NET *62 0.673078

*CONN
*I *126:Z O *C 19.2300 5.8525 *D gf180mcu_fd_sc_mcu7t5v0__tieh

*CAP
1 *126:Z *7:2 0.0171926
2 *126:Z 0.655886
*END

*D_NET *63 0.677772

*CONN
*I *127:Z O *C 19.3200 2.3050 *D gf180mcu_fd_sc_mcu7t5v0__tieh

*CAP
1 *127:Z *8:2 0.0449129
2 *127:Z 0.632859
*END

*D_NET *64 0.699513

*CONN
*I *128:Z O *C 25.9500 5.8525 *D gf180mcu_fd_sc_mcu7t5v0__tieh

*CAP
1 *128:Z *9:2 0.046543
2 *128:Z 0.65297
*END

*D_NET *65 0.615957

*CONN
*I *129:Z O *C 26.0400 2.3050 *D gf180mcu_fd_sc_mcu7t5v0__tieh

*CAP
1 *129:Z *10:2 0.0350983
2 *129:Z 0.580859
*END

*D_NET *66 0.684192

*CONN
*I *130:Z O *C 31.5500 5.8525 *D gf180mcu_fd_sc_mcu7t5v0__tieh

*CAP
1 *130:Z *11:2 0.0234479
2 *130:Z 0.660744
*END

*D_NET *67 0.598529

*CONN
*I *131:Z O *C 31.6400 2.3050 *D gf180mcu_fd_sc_mcu7t5v0__tieh

*CAP
1 *131:Z *11:2 0.00100266
2 *131:Z *12:2 0.0397873
3 *131:Z 0.557739
*END
