*SPEF "IEEE 1481-1999"
*DESIGN "user_id_programming"
*DATE "Tue Dec  6 03:36:10 2022"
*VENDOR "Synopsys Inc."
*PROGRAM "StarRC"
*VERSION "T-2022.03-SP3"
*DESIGN_FLOW "PIN_CAP NONE" "NAME_SCOPE LOCAL"
*DIVIDER /
*DELIMITER :
*BUS_DELIMITER ()
*T_UNIT 1.0 NS
*C_UNIT 1.0 FF
*R_UNIT 1.0 OHM
*L_UNIT 1.0 HENRY

// COMMENTS

// CORNER_NAME 
// OPERATING_TEMPERATURE 125
// GLOBAL_TEMPERATURE 25
// TCAD_GRD_FILE /home/passant/gf180_timing/caravel-gf180mcu/scripts/gf180-tech/gf180mcu_1p5m_1tm_9k_sp_smim_OPTB_wst.nxtgrd
//   TCAD_TIME_STAMP Tue Dec 26 17:57:55 2017
//   TCADGRD_VERSION 75
// galaxy_comments_begin
//   local_nodeid
// galaxy_comments_end

*NAME_MAP
*68 mask_rev\[0\]
*69 mask_rev\[1\]
*70 mask_rev\[2\]
*71 mask_rev\[3\]
*72 mask_rev\[4\]
*73 mask_rev\[5\]
*74 mask_rev\[6\]
*75 mask_rev\[7\]
*76 mask_rev\[8\]
*77 mask_rev\[9\]
*78 mask_rev\[10\]
*79 mask_rev\[11\]
*80 mask_rev\[12\]
*81 mask_rev\[13\]
*82 mask_rev\[14\]
*83 mask_rev\[15\]
*84 mask_rev\[16\]
*85 mask_rev\[17\]
*86 mask_rev\[18\]
*87 mask_rev\[19\]
*88 mask_rev\[20\]
*89 mask_rev\[21\]
*90 mask_rev\[22\]
*91 mask_rev\[23\]
*92 mask_rev\[24\]
*93 mask_rev\[25\]
*94 mask_rev\[26\]
*95 mask_rev\[27\]
*96 mask_rev\[28\]
*97 mask_rev\[29\]
*98 mask_rev\[30\]
*99 mask_rev\[31\]
*100 mask_rev_value_one\[0\]
*101 mask_rev_value_one\[10\]
*102 mask_rev_value_one\[11\]
*103 mask_rev_value_one\[12\]
*104 mask_rev_value_one\[13\]
*105 mask_rev_value_one\[14\]
*106 mask_rev_value_one\[15\]
*107 mask_rev_value_one\[16\]
*108 mask_rev_value_one\[17\]
*109 mask_rev_value_one\[18\]
*110 mask_rev_value_one\[19\]
*111 mask_rev_value_one\[1\]
*112 mask_rev_value_one\[20\]
*113 mask_rev_value_one\[21\]
*114 mask_rev_value_one\[22\]
*115 mask_rev_value_one\[23\]
*116 mask_rev_value_one\[24\]
*117 mask_rev_value_one\[25\]
*118 mask_rev_value_one\[26\]
*119 mask_rev_value_one\[27\]
*120 mask_rev_value_one\[28\]
*121 mask_rev_value_one\[29\]
*122 mask_rev_value_one\[2\]
*123 mask_rev_value_one\[30\]
*124 mask_rev_value_one\[31\]
*125 mask_rev_value_one\[3\]
*126 mask_rev_value_one\[4\]
*127 mask_rev_value_one\[5\]
*128 mask_rev_value_one\[6\]
*129 mask_rev_value_one\[7\]
*130 mask_rev_value_one\[8\]
*131 mask_rev_value_one\[9\]
*132 mask_rev_value_zero\[0\]
*133 mask_rev_value_zero\[10\]
*134 mask_rev_value_zero\[11\]
*135 mask_rev_value_zero\[12\]
*136 mask_rev_value_zero\[13\]
*137 mask_rev_value_zero\[14\]
*138 mask_rev_value_zero\[15\]
*139 mask_rev_value_zero\[16\]
*140 mask_rev_value_zero\[17\]
*141 mask_rev_value_zero\[18\]
*142 mask_rev_value_zero\[19\]
*143 mask_rev_value_zero\[1\]
*144 mask_rev_value_zero\[20\]
*145 mask_rev_value_zero\[21\]
*146 mask_rev_value_zero\[22\]
*147 mask_rev_value_zero\[23\]
*148 mask_rev_value_zero\[24\]
*149 mask_rev_value_zero\[25\]
*150 mask_rev_value_zero\[26\]
*151 mask_rev_value_zero\[27\]
*152 mask_rev_value_zero\[28\]
*153 mask_rev_value_zero\[29\]
*154 mask_rev_value_zero\[2\]
*155 mask_rev_value_zero\[30\]
*156 mask_rev_value_zero\[31\]
*157 mask_rev_value_zero\[3\]
*158 mask_rev_value_zero\[4\]
*159 mask_rev_value_zero\[5\]
*160 mask_rev_value_zero\[6\]
*161 mask_rev_value_zero\[7\]
*162 mask_rev_value_zero\[8\]
*163 mask_rev_value_zero\[9\]
*3 mask_rev\[0\]
*4 mask_rev\[1\]
*5 mask_rev\[2\]
*6 mask_rev\[3\]
*7 mask_rev\[4\]
*8 mask_rev\[5\]
*9 mask_rev\[6\]
*10 mask_rev\[7\]
*11 mask_rev\[8\]
*12 mask_rev\[9\]
*13 mask_rev\[10\]
*14 mask_rev\[11\]
*15 mask_rev\[12\]
*16 mask_rev\[13\]
*17 mask_rev\[14\]
*18 mask_rev\[15\]
*19 mask_rev\[16\]
*20 mask_rev\[17\]
*21 mask_rev\[18\]
*22 mask_rev\[19\]
*23 mask_rev\[20\]
*24 mask_rev\[21\]
*25 mask_rev\[22\]
*26 mask_rev\[23\]
*27 mask_rev\[24\]
*28 mask_rev\[25\]
*29 mask_rev\[26\]
*30 mask_rev\[27\]
*31 mask_rev\[28\]
*32 mask_rev\[29\]
*33 mask_rev\[30\]
*34 mask_rev\[31\]
*36 user_proj_id_nc\[0\]
*37 user_proj_id_nc\[10\]
*38 user_proj_id_nc\[11\]
*39 user_proj_id_nc\[12\]
*40 user_proj_id_nc\[13\]
*41 user_proj_id_nc\[14\]
*42 user_proj_id_nc\[15\]
*43 user_proj_id_nc\[16\]
*44 user_proj_id_nc\[17\]
*45 user_proj_id_nc\[18\]
*46 user_proj_id_nc\[19\]
*47 user_proj_id_nc\[1\]
*48 user_proj_id_nc\[20\]
*49 user_proj_id_nc\[21\]
*50 user_proj_id_nc\[22\]
*51 user_proj_id_nc\[23\]
*52 user_proj_id_nc\[24\]
*53 user_proj_id_nc\[25\]
*54 user_proj_id_nc\[26\]
*55 user_proj_id_nc\[27\]
*56 user_proj_id_nc\[28\]
*57 user_proj_id_nc\[29\]
*58 user_proj_id_nc\[2\]
*59 user_proj_id_nc\[30\]
*60 user_proj_id_nc\[31\]
*61 user_proj_id_nc\[3\]
*62 user_proj_id_nc\[4\]
*63 user_proj_id_nc\[5\]
*64 user_proj_id_nc\[6\]
*65 user_proj_id_nc\[7\]
*66 user_proj_id_nc\[8\]
*67 user_proj_id_nc\[9\]

*PORTS

*68 B
*69 B
*70 B
*71 B
*72 B
*73 B
*74 B
*75 B
*76 B
*77 B
*78 B
*79 B
*80 B
*81 B
*82 B
*83 B
*84 B
*85 B
*86 B
*87 B
*88 B
*89 B
*90 B
*91 B
*92 B
*93 B
*94 B
*95 B
*96 B
*97 B
*98 B
*99 B

*D_NET *3 2.55042

*CONN
*P *68 B *C 0.2800 -1.0750
*I *132:ZN O *C 9.2400 6.4400 *D gf180mcu_fd_sc_mcu7t5v0__tiel

*CAP
1 *3:2 *4:2 0.238145
2 *3:2 *5:2 0.00380474
3 *3:2 *100:Z 0.0494477
4 *3:2 *111:Z 0.00497883
5 *68 0.254916
6 *132:ZN 0.0598951
7 *3:2 1.63651
8 *3:3 0.137255
9 *3:4 0.165464
10 *3:5 0.0

*RES
1 *68 *3:2 4.36967
2 *132:ZN *3:2 20.6656
3 *132:ZN *3:5 0.001
4 *132:ZN *3:3 0.001
5 *3:3 *3:4 0.440587
*END

*D_NET *4 1.62871

*CONN
*P *69 B *C 3.6400 -1.0750
*I *143:ZN O *C 9.2400 1.4000 *D gf180mcu_fd_sc_mcu7t5v0__tiel

*CAP
1 *4:2 *3:2 0.238145
2 *4:2 *5:2 0.196641
3 *4:2 *111:Z 0.0299022
4 *69 0.328619
5 *4:2 0.538391
6 *4:3 0.15302
7 *4:4 0.143989
8 *4:5 0.0

*RES
1 *69 *4:2 1.25836
2 *143:ZN *4:2 19.3566
3 *143:ZN *4:5 0.001
4 *143:ZN *4:4 0.001
5 *4:3 *4:4 0.452547
*END

*D_NET *5 2.89009

*CONN
*P *70 B *C 7.5600 -1.0750
*I *154:ZN O *C 15.9600 6.4400 *D gf180mcu_fd_sc_mcu7t5v0__tiel

*CAP
1 *5:2 *3:2 0.00380474
2 *5:2 *4:2 0.196641
3 *5:2 *71 0.247893
4 *5:2 *6:6 0.0175273
5 *5:2 *7:2 0.0797404
6 *5:2 *111:Z 0.00519484
7 *5:2 *122:Z 0.0468755
8 *70 0.274781
9 *154:ZN 0.0603064
10 *5:2 1.65768
11 *5:3 0.135573
12 *5:4 0.16407
13 *5:5 0.0

*RES
1 *70 *5:2 3.14206
2 *154:ZN *5:5 0.001
3 *154:ZN *5:2 21.5879
4 *154:ZN *5:3 0.001
5 *5:3 *5:4 0.440587
*END

*D_NET *6 1.67197

*CONN
*P *71 B *C 11.0600 -0.0700
*I *157:ZN O *C 15.9600 1.4000 *D gf180mcu_fd_sc_mcu7t5v0__tiel

*CAP
1 *71 *5:2 0.247893
2 *6:6 *5:2 0.0175273
3 *71 *72 0.124179
4 *71 *7:2 0.143084
5 *6:6 *72 0.0327227
6 *71 *125:Z 0.042444
7 *71 0.289915
8 *6:2 0.349287
9 *6:3 0.141686
10 *6:4 0.142843
11 *6:6 0.140385

*RES
1 *71 *6:2 1.68892
2 *71 *6:6 0.001
3 *157:ZN *6:2 18.2241
4 *157:ZN *6:5 0.001
5 *157:ZN *6:4 0.001
6 *6:3 *6:4 0.452547
*END

*D_NET *7 2.34483

*CONN
*P *72 B *C 14.2800 -1.0750
*I *158:ZN O *C 21.5600 6.4400 *D gf180mcu_fd_sc_mcu7t5v0__tiel

*CAP
1 *7:2 *5:2 0.0797404
2 *72 *71 0.124179
3 *7:2 *71 0.143084
4 *72 *6:6 0.0327227
5 *72 *8:2 0.0442774
6 *7:2 *8:2 0.154389
7 *7:2 *9:2 0.0332383
8 *7:2 *126:Z 0.0219906
9 *72 0.0430473
10 *158:ZN 0.0890053
11 *7:2 1.27781
12 *7:3 0.137255
13 *7:4 0.164092
14 *7:5 0.0

*RES
1 *72 *7:2 1.8632
2 *158:ZN *7:2 22.2462
3 *158:ZN *7:5 0.001
4 *158:ZN *7:3 0.001
5 *7:3 *7:4 0.440587
*END

*D_NET *8 1.28767

*CONN
*P *73 B *C 17.6400 -1.0750
*I *159:ZN O *C 21.5600 1.4000 *D gf180mcu_fd_sc_mcu7t5v0__tiel

*CAP
1 *8:2 *72 0.0442774
2 *8:2 *7:2 0.154389
3 *8:2 *74 0.124723
4 *8:2 *9:2 0.0234649
5 *8:2 *127:Z 0.0560976
6 *73 0.291274
7 *8:2 0.301699
8 *8:3 0.147864
9 *8:4 0.143876
10 *8:5 0.0

*RES
1 *73 *8:2 1.25836
2 *159:ZN *8:5 0.001
3 *159:ZN *8:4 0.001
4 *159:ZN *8:2 18.6031
5 *8:3 *8:4 0.452547
*END

*D_NET *9 2.22952

*CONN
*P *74 B *C 21.0000 -1.0750
*I *160:ZN O *C 28.2800 6.4400 *D gf180mcu_fd_sc_mcu7t5v0__tiel

*CAP
1 *9:2 *7:2 0.0332383
2 *74 *8:2 0.124723
3 *9:2 *8:2 0.0234649
4 *74 *10:2 0.0390678
5 *9:2 *10:2 0.0224681
6 *9:2 *11:2 0.0437779
7 *9:2 *128:Z 0.0585403
8 *74 0.0664141
9 *160:ZN 0.0764639
10 *9:2 1.43185
11 *9:3 0.145437
12 *9:4 0.16407
13 *9:5 0.0

*RES
1 *74 *9:2 2.29632
2 *160:ZN *9:2 21.8397
3 *160:ZN *9:5 0.001
4 *160:ZN *9:3 0.001
5 *9:3 *9:4 0.440587
*END

*D_NET *10 1.23364

*CONN
*P *75 B *C 24.9200 -1.0750
*I *161:ZN O *C 28.2800 1.4000 *D gf180mcu_fd_sc_mcu7t5v0__tiel

*CAP
1 *10:2 *74 0.0390678
2 *10:2 *9:2 0.0224681
3 *10:2 *11:2 0.122965
4 *10:2 *129:Z 0.0443348
5 *75 0.368474
6 *10:2 0.354421
7 *10:3 0.139606
8 *10:4 0.142299
9 *10:5 0.0

*RES
1 *75 *10:2 1.25836
2 *161:ZN *10:2 18.352
3 *161:ZN *10:5 0.001
4 *161:ZN *10:4 0.001
5 *10:3 *10:4 0.452547
*END

*D_NET *11 2.43628

*CONN
*P *76 B *C 28.2800 -1.0750
*I *162:ZN O *C 33.8800 6.4400 *D gf180mcu_fd_sc_mcu7t5v0__tiel

*CAP
1 *11:2 *9:2 0.0437779
2 *11:2 *10:2 0.122965
3 *11:2 *12:2 0.0890066
4 *11:2 *13:2 0.0597135
5 *11:2 *130:Z 0.0297786
6 *11:2 *131:Z 0.00115401
7 *76 0.105381
8 *162:ZN 0.061771
9 *11:2 1.622
10 *11:3 0.136639
11 *11:4 0.164092
12 *11:5 0.0

*RES
1 *76 *11:2 1.85038
2 *162:ZN *11:2 21.4908
3 *162:ZN *11:5 0.001
4 *162:ZN *11:3 0.001
5 *11:3 *11:4 0.440587
*END

*D_NET *12 1.14302

*CONN
*P *77 B *C 31.6400 -1.0750
*I *163:ZN O *C 33.8800 1.4000 *D gf180mcu_fd_sc_mcu7t5v0__tiel

*CAP
1 *12:2 *11:2 0.0890066
2 *12:2 *78 0.0427922
3 *12:2 *131:Z 0.0500583
4 *77 0.34868
5 *12:2 0.298599
6 *12:3 0.158041
7 *12:4 0.155845
8 *12:5 0.0

*RES
1 *77 *12:2 1.25836
2 *163:ZN *12:2 17.8496
3 *163:ZN *12:5 0.001
4 *163:ZN *12:4 0.001
5 *12:3 *12:4 0.452547
*END

*D_NET *13 1.99704

*CONN
*P *78 B *C 35.0000 -1.0750
*I *133:ZN O *C 40.6000 6.4400 *D gf180mcu_fd_sc_mcu7t5v0__tiel

*CAP
1 *13:2 *11:2 0.0597135
2 *78 *12:2 0.0427922
3 *78 *14:2 0.0493085
4 *13:2 *80 0.0266008
5 *13:2 *101:Z 0.0373707
6 *78 0.930602
7 *13:2 0.550795
8 *13:3 0.135783
9 *13:4 0.16407
10 *13:5 0.0

*RES
1 *78 *13:2 3.84172
2 *133:ZN *13:5 0.001
3 *133:ZN *13:2 19.3566
4 *133:ZN *13:3 0.001
5 *13:3 *13:4 0.440587
*END

*D_NET *14 0.93656

*CONN
*P *79 B *C 38.9200 -1.0750
*I *134:ZN O *C 40.6000 1.4000 *D gf180mcu_fd_sc_mcu7t5v0__tiel

*CAP
1 *14:2 *78 0.0493085
2 *14:2 *80 0.0698617
3 *14:2 *102:Z 0.0444849
4 *79 0.289479
5 *14:2 0.182996
6 *14:3 0.158269
7 *14:4 0.142161
8 *14:5 0.0

*RES
1 *79 *14:2 1.25836
2 *134:ZN *14:2 17.5985
3 *134:ZN *14:5 0.001
4 *134:ZN *14:4 0.001
5 *14:3 *14:4 0.452547
*END

*D_NET *15 1.73341

*CONN
*P *80 B *C 42.2800 -1.0750
*I *135:ZN O *C 46.2000 6.4400 *D gf180mcu_fd_sc_mcu7t5v0__tiel

*CAP
1 *80 *13:2 0.0266008
2 *80 *14:2 0.0698617
3 *80 *16:2 0.0617034
4 *80 *82 0.0124964
5 *80 *103:Z 0.0361486
6 *80 0.863829
7 *15:2 0.361436
8 *15:3 0.137239
9 *15:4 0.164092
10 *15:5 0.0

*RES
1 *80 *15:2 3.84172
2 *135:ZN *15:2 18.6031
3 *135:ZN *15:5 0.001
4 *135:ZN *15:3 0.001
5 *15:3 *15:4 0.440587
*END

*D_NET *16 1.02762

*CONN
*P *81 B *C 45.6400 -1.0750
*I *136:ZN O *C 46.2000 1.4000 *D gf180mcu_fd_sc_mcu7t5v0__tiel

*CAP
1 *16:2 *80 0.0617034
2 *16:2 *82 0.055483
3 *16:2 *104:Z 0.0369505
4 *81 0.310691
5 *16:2 0.265855
6 *16:3 0.153054
7 *16:4 0.143889
8 *16:5 0.0

*RES
1 *81 *16:2 1.25836
2 *136:ZN *16:5 0.001
3 *136:ZN *16:4 0.001
4 *136:ZN *16:2 17.0962
5 *16:3 *16:4 0.452547
*END

*D_NET *17 1.73784

*CONN
*P *82 B *C 49.0000 -1.0750
*I *137:ZN O *C 52.9200 6.4400 *D gf180mcu_fd_sc_mcu7t5v0__tiel

*CAP
1 *82 *80 0.0124964
2 *82 *16:2 0.055483
3 *82 *18:2 0.0659892
4 *82 *19:2 0.00112188
5 *82 *105:Z 0.0359605
6 *82 0.858141
7 *17:2 0.400695
8 *17:3 0.136269
9 *17:4 0.171687
10 *17:5 0.0

*RES
1 *82 *17:2 3.84172
2 *137:ZN *17:2 18.6031
3 *137:ZN *17:5 0.001
4 *137:ZN *17:3 0.001
5 *17:3 *17:4 0.440587
*END

*D_NET *18 1.06514

*CONN
*P *83 B *C 52.3600 -1.0750
*I *138:ZN O *C 52.9200 1.4000 *D gf180mcu_fd_sc_mcu7t5v0__tiel

*CAP
1 *18:2 *82 0.0659892
2 *18:2 *19:2 0.0238984
3 *18:2 *106:Z 0.0369279
4 *83 0.3133
5 *18:2 0.324998
6 *18:3 0.157712
7 *18:4 0.142313
8 *18:5 0.0

*RES
1 *83 *18:2 1.25836
2 *138:ZN *18:2 17.0962
3 *138:ZN *18:5 0.001
4 *138:ZN *18:4 0.001
5 *18:3 *18:4 0.452547
*END

*D_NET *19 1.77891

*CONN
*P *84 B *C 56.2800 -1.0750
*I *139:ZN O *C 58.5200 6.4400 *D gf180mcu_fd_sc_mcu7t5v0__tiel

*CAP
1 *19:2 *82 0.00112188
2 *19:2 *18:2 0.0238984
3 *19:2 *20:2 0.077543
4 *19:2 *21:2 0.00625274
5 *19:2 *107:Z 0.0374243
6 *19:2 *108:Z 0.00306288
7 *84 0.433412
8 *139:ZN 0.0263675
9 *19:2 0.868466
10 *19:3 0.137271
11 *19:4 0.164092
12 *19:5 0.0

*RES
1 *84 *19:2 2.01953
2 *139:ZN *19:2 19.659
3 *139:ZN *19:5 0.001
4 *139:ZN *19:3 0.001
5 *19:3 *19:4 0.440587
*END

*D_NET *20 1.08485

*CONN
*P *85 B *C 59.6400 -1.0750
*I *140:ZN O *C 58.5200 1.4000 *D gf180mcu_fd_sc_mcu7t5v0__tiel

*CAP
1 *20:2 *19:2 0.077543
2 *20:2 *21:2 0.0441463
3 *20:2 *108:Z 0.0042365
4 *85 0.323031
5 *20:2 0.33773
6 *20:3 0.155905
7 *20:4 0.142262
8 *20:5 0.0

*RES
1 *85 *20:2 1.25836
2 *140:ZN *20:2 17.3473
3 *140:ZN *20:5 0.001
4 *140:ZN *20:4 0.001
5 *20:3 *20:4 0.452547
*END

*D_NET *21 1.84254

*CONN
*P *86 B *C 62.8600 -0.1300
*I *141:ZN O *C 65.2400 6.4400 *D gf180mcu_fd_sc_mcu7t5v0__tiel

*CAP
1 *21:2 *19:2 0.00625274
2 *21:2 *20:2 0.0441463
3 *21:2 *22:2 0.080818
4 *21:2 *88 0.0227116
5 *21:2 *109:Z 0.0122714
6 *21:2 *110:Z 0.0202124
7 *86 0.0569413
8 *141:ZN 0.0240295
9 *21:2 0.693307
10 *21:3 0.0552698
11 *21:4 0.136269
12 *21:5 0.16407
13 *21:7 0.526238

*RES
1 *86 *21:3 0.001
2 *141:ZN *21:6 0.001
3 *141:ZN *21:2 19.5924
4 *141:ZN *21:4 0.001
5 *21:2 *21:7 1.55013
6 *21:3 *21:7 0.001
7 *21:4 *21:5 0.440587
*END

*D_NET *22 0.955626

*CONN
*P *87 B *C 66.3600 -1.0750
*I *142:ZN O *C 65.2400 1.4000 *D gf180mcu_fd_sc_mcu7t5v0__tiel

*CAP
1 *22:2 *21:2 0.080818
2 *22:2 *88 0.0780921
3 *22:2 *110:Z 0.0042365
4 *87 0.248061
5 *22:2 0.245622
6 *22:3 0.155905
7 *22:4 0.142891
8 *22:5 0.0

*RES
1 *87 *22:2 1.25836
2 *142:ZN *22:2 17.3473
3 *142:ZN *22:5 0.001
4 *142:ZN *22:4 0.001
5 *22:3 *22:4 0.452547
*END

*D_NET *23 1.97919

*CONN
*P *88 B *C 70.1400 -0.0675
*I *144:ZN O *C 70.8400 6.4400 *D gf180mcu_fd_sc_mcu7t5v0__tiel

*CAP
1 *88 *21:2 0.0227116
2 *88 *22:2 0.0780921
3 *88 *24:2 0.14813
4 *88 *90 0.00682032
5 *88 *112:Z 0.0262834
6 *88 *113:Z 0.00411062
7 *88 0.682082
8 *23:2 0.519631
9 *23:3 0.137271
10 *23:4 0.164092
11 *23:6 0.18996

*RES
1 *88 *23:6 0.001
2 *88 *23:2 4.27741
3 *144:ZN *23:2 17.9842
4 *144:ZN *23:5 0.001
5 *144:ZN *23:3 0.001
6 *23:3 *23:4 0.440587
*END

*D_NET *24 1.35801

*CONN
*P *89 B *C 73.6400 -1.0750
*I *145:ZN O *C 70.8400 1.4000 *D gf180mcu_fd_sc_mcu7t5v0__tiel

*CAP
1 *24:2 *88 0.14813
2 *24:2 *90 0.0742237
3 *24:2 *113:Z 0.0304563
4 *89 0.315368
5 *24:2 0.494715
6 *24:3 0.152852
7 *24:4 0.142262
8 *24:5 0.0

*RES
1 *89 *24:2 1.25836
2 *145:ZN *24:5 0.001
3 *145:ZN *24:4 0.001
4 *145:ZN *24:2 18.1008
5 *24:3 *24:4 0.452547
*END

*D_NET *25 2.18112

*CONN
*P *90 B *C 77.0000 -1.0750
*I *146:ZN O *C 77.5600 6.4400 *D gf180mcu_fd_sc_mcu7t5v0__tiel

*CAP
1 *90 *88 0.00682032
2 *90 *24:2 0.0742237
3 *90 *26:2 0.122521
4 *90 *148:ZN 0.00522943
5 *90 *114:Z 0.0239255
6 *90 *115:Z 0.00434254
7 *90 0.81663
8 *25:2 0.828017
9 *25:3 0.136287
10 *25:4 0.163123
11 *25:5 0.0

*RES
1 *90 *25:2 4.83355
2 *146:ZN *25:2 17.964
3 *146:ZN *25:5 0.001
4 *146:ZN *25:3 0.001
5 *25:3 *25:4 0.440587
*END

*D_NET *26 1.40555

*CONN
*P *91 B *C 80.3600 -1.0750
*I *147:ZN O *C 77.5600 1.4000 *D gf180mcu_fd_sc_mcu7t5v0__tiel

*CAP
1 *26:2 *90 0.122521
2 *26:2 *92 0.0488431
3 *26:2 *28:2 0.0455039
4 *26:2 *115:Z 0.022066
5 *26:2 *117:Z 0.0261733
6 *91 0.322306
7 *26:2 0.524504
8 *26:3 0.152779
9 *26:4 0.140851
10 *26:5 0.0

*RES
1 *91 *26:2 1.25836
2 *147:ZN *26:2 18.1008
3 *147:ZN *26:5 0.001
4 *147:ZN *26:4 0.001
5 *26:3 *26:4 0.452547
*END

*D_NET *27 2.41637

*CONN
*P *92 B *C 83.7200 -1.0750
*I *148:ZN O *C 83.1600 6.4400 *D gf180mcu_fd_sc_mcu7t5v0__tiel

*CAP
1 *148:ZN *90 0.00522943
2 *92 *26:2 0.0488431
3 *92 *28:2 0.315233
4 *148:ZN *29:2 0.00709781
5 *148:ZN *116:Z 0.0438688
6 *92 *117:Z 0.000500201
7 *92 0.274174
8 *148:ZN 0.33623
9 *27:2 0.136737
10 *27:3 1.08436
11 *27:4 0.164092
12 *27:5 0.0

*RES
1 *92 *27:3 17.9655
2 *148:ZN *27:3 36.6476
3 *148:ZN *27:5 0.001
4 *148:ZN *27:2 0.001
5 *27:2 *27:4 0.440587
*END

*D_NET *28 1.65192

*CONN
*P *93 B *C 87.5000 -0.3587
*I *149:ZN O *C 83.1600 1.4000 *D gf180mcu_fd_sc_mcu7t5v0__tiel

*CAP
1 *28:2 *26:2 0.0455039
2 *28:2 *92 0.315233
3 *28:2 *94 0.055635
4 *28:2 *117:Z 0.0424587
5 *28:2 *119:Z 0.0664313
6 *93 0.0564074
7 *28:2 0.568258
8 *28:3 0.146893
9 *28:4 0.130715
10 *28:6 0.224382

*RES
1 *93 *28:6 0.18033
2 *149:ZN *28:2 18.8431
3 *149:ZN *28:5 0.001
4 *149:ZN *28:4 0.001
5 *28:2 *28:6 0.691331
6 *28:3 *28:4 0.452547
*END

*D_NET *29 2.44533

*CONN
*P *94 B *C 91.0000 -1.0750
*I *150:ZN O *C 89.8800 6.4400 *D gf180mcu_fd_sc_mcu7t5v0__tiel

*CAP
1 *29:2 *148:ZN 0.00709781
2 *94 *28:2 0.055635
3 *94 *30:2 0.44279
4 *29:2 *31:2 0.00996087
5 *29:2 *118:Z 0.0192759
6 *94 *119:Z 0.000450344
7 *94 *121:Z 0.000118414
8 *94 0.598164
9 *29:2 1.01213
10 *29:3 0.135642
11 *29:4 0.16407
12 *29:5 0.0

*RES
1 *94 *29:2 37.7165
2 *150:ZN *29:2 17.1343
3 *150:ZN *29:5 0.001
4 *150:ZN *29:3 0.001
5 *29:3 *29:4 0.440587
*END

*D_NET *30 1.68742

*CONN
*P *95 B *C 94.3600 -1.0750
*I *151:ZN O *C 89.8800 1.4000 *D gf180mcu_fd_sc_mcu7t5v0__tiel

*CAP
1 *30:2 *94 0.44279
2 *30:2 *96 0.0553689
3 *30:2 *32:2 0.165844
4 *30:2 *119:Z 0.0166265
5 *30:2 *121:Z 0.00173184
6 *95 0.397249
7 *30:2 0.334196
8 *30:3 0.142668
9 *30:4 0.130945
10 *30:5 0.0

*RES
1 *95 *30:2 2.52185
2 *151:ZN *30:2 17.7487
3 *151:ZN *30:5 0.001
4 *151:ZN *30:4 0.001
5 *30:3 *30:4 0.452547
*END

*D_NET *31 2.98516

*CONN
*P *96 B *C 97.7200 -1.0750
*I *152:ZN O *C 95.4800 6.4400 *D gf180mcu_fd_sc_mcu7t5v0__tiel

*CAP
1 *31:2 *29:2 0.00996087
2 *96 *30:2 0.0553689
3 *96 *32:2 0.558454
4 *31:2 *33:2 0.000620624
5 *31:2 *120:Z 0.0439897
6 *96 *121:Z 0.000470201
7 *96 0.936293
8 *31:2 1.0778
9 *31:3 0.136714
10 *31:4 0.16549
11 *31:5 0.0

*RES
1 *96 *31:2 38.3279
2 *152:ZN *31:2 17.1231
3 *152:ZN *31:5 0.001
4 *152:ZN *31:3 0.001
5 *31:3 *31:4 0.440587
*END

*D_NET *32 2.55829

*CONN
*P *97 B *C 101.6400 -1.0750
*I *153:ZN O *C 95.4800 1.4000 *D gf180mcu_fd_sc_mcu7t5v0__tiel

*CAP
1 *32:2 *30:2 0.165844
2 *32:2 *96 0.558454
3 *32:2 *98 0.0745238
4 *32:2 *34:2 0.255551
5 *32:2 *121:Z 0.0303078
6 *32:2 *124:Z 0.00196085
7 *97 0.568394
8 *32:2 0.631282
9 *32:3 0.14111
10 *32:4 0.130865
11 *32:5 0.0

*RES
1 *97 *32:2 2.68588
2 *153:ZN *32:5 0.001
3 *153:ZN *32:4 0.001
4 *153:ZN *32:2 18.3587
5 *32:3 *32:4 0.452547
*END

*D_NET *33 2.72298

*CONN
*P *98 B *C 105.0000 -1.0750
*I *155:ZN O *C 102.2000 6.4400 *D gf180mcu_fd_sc_mcu7t5v0__tiel

*CAP
1 *33:2 *31:2 0.000620624
2 *98 *32:2 0.0745238
3 *98 *34:2 0.583764
4 *33:2 *123:Z 0.0192611
5 *98 0.71026
6 *33:2 1.0347
7 *33:3 0.135788
8 *33:4 0.16407
9 *33:5 0.0

*RES
1 *98 *33:2 38.6125
2 *155:ZN *33:2 17.1163
3 *155:ZN *33:5 0.001
4 *155:ZN *33:3 0.001
5 *33:3 *33:4 0.440587
*END

*D_NET *34 2.29732

*CONN
*P *99 B *C 108.3600 -1.0750
*I *156:ZN O *C 102.2000 1.4000 *D gf180mcu_fd_sc_mcu7t5v0__tiel

*CAP
1 *34:2 *32:2 0.255551
2 *34:2 *98 0.583764
3 *34:2 *124:Z 0.0344332
4 *99 0.385946
5 *34:2 0.7646
6 *34:3 0.142316
7 *34:4 0.13071
8 *34:5 0.0

*RES
1 *99 *34:2 1.25836
2 *156:ZN *34:2 19.6078
3 *156:ZN *34:5 0.001
4 *156:ZN *34:4 0.001
5 *34:3 *34:4 0.452547
*END

*D_NET *36 0.922511

*CONN
*I *100:Z O *C 6.9100 5.8525 *D gf180mcu_fd_sc_mcu7t5v0__tieh

*CAP
1 *100:Z *3:2 0.0494477
2 *100:Z 0.873063
*END

*D_NET *37 0.871203

*CONN
*I *101:Z O *C 38.2700 5.8525 *D gf180mcu_fd_sc_mcu7t5v0__tieh

*CAP
1 *101:Z *13:2 0.0373707
2 *101:Z 0.833832
*END

*D_NET *38 0.80322

*CONN
*I *102:Z O *C 38.3600 2.3050 *D gf180mcu_fd_sc_mcu7t5v0__tieh

*CAP
1 *102:Z *14:2 0.0444849
2 *102:Z 0.758735
*END

*D_NET *39 0.865822

*CONN
*I *103:Z O *C 43.8700 5.8525 *D gf180mcu_fd_sc_mcu7t5v0__tieh

*CAP
1 *103:Z *80 0.0361486
2 *103:Z 0.829673
*END

*D_NET *40 0.755026

*CONN
*I *104:Z O *C 43.9600 2.3050 *D gf180mcu_fd_sc_mcu7t5v0__tieh

*CAP
1 *104:Z *16:2 0.0369505
2 *104:Z 0.718076
*END

*D_NET *41 0.866548

*CONN
*I *105:Z O *C 50.5900 5.8525 *D gf180mcu_fd_sc_mcu7t5v0__tieh

*CAP
1 *105:Z *82 0.0359605
2 *105:Z 0.830587
*END

*D_NET *42 0.756047

*CONN
*I *106:Z O *C 50.6800 2.3050 *D gf180mcu_fd_sc_mcu7t5v0__tieh

*CAP
1 *106:Z *18:2 0.0369279
2 *106:Z 0.719119
*END

*D_NET *43 0.874829

*CONN
*I *107:Z O *C 56.1900 5.8525 *D gf180mcu_fd_sc_mcu7t5v0__tieh

*CAP
1 *107:Z *19:2 0.0374243
2 *107:Z 0.837405
*END

*D_NET *44 0.708356

*CONN
*I *108:Z O *C 56.2800 2.3050 *D gf180mcu_fd_sc_mcu7t5v0__tieh

*CAP
1 *108:Z *19:2 0.00306288
2 *108:Z *20:2 0.0042365
3 *108:Z 0.701056
*END

*D_NET *45 0.852417

*CONN
*I *109:Z O *C 62.9100 5.8525 *D gf180mcu_fd_sc_mcu7t5v0__tieh

*CAP
1 *109:Z *21:2 0.0122714
2 *109:Z 0.840146
*END

*D_NET *46 0.726408

*CONN
*I *110:Z O *C 63.0000 2.3050 *D gf180mcu_fd_sc_mcu7t5v0__tieh

*CAP
1 *110:Z *21:2 0.0202124
2 *110:Z *22:2 0.0042365
3 *110:Z 0.701959
*END

*D_NET *47 0.818778

*CONN
*I *111:Z O *C 7.0000 2.3050 *D gf180mcu_fd_sc_mcu7t5v0__tieh

*CAP
1 *111:Z *3:2 0.00497883
2 *111:Z *4:2 0.0299022
3 *111:Z *5:2 0.00519484
4 *111:Z 0.778703
*END

*D_NET *48 0.976577

*CONN
*I *112:Z O *C 68.5100 5.8525 *D gf180mcu_fd_sc_mcu7t5v0__tieh

*CAP
1 *112:Z *88 0.0262834
2 *112:Z 0.950294
*END

*D_NET *49 0.990455

*CONN
*I *113:Z O *C 68.6000 2.3050 *D gf180mcu_fd_sc_mcu7t5v0__tieh

*CAP
1 *113:Z *88 0.00411062
2 *113:Z *24:2 0.0304563
3 *113:Z 0.955888
*END

*D_NET *50 0.970226

*CONN
*I *114:Z O *C 75.2300 5.8525 *D gf180mcu_fd_sc_mcu7t5v0__tieh

*CAP
1 *114:Z *90 0.0239255
2 *114:Z 0.946301
*END

*D_NET *51 0.960806

*CONN
*I *115:Z O *C 75.3200 2.3050 *D gf180mcu_fd_sc_mcu7t5v0__tieh

*CAP
1 *115:Z *90 0.00434254
2 *115:Z *26:2 0.022066
3 *115:Z 0.934398
*END

*D_NET *52 0.910949

*CONN
*I *116:Z O *C 80.8300 5.8525 *D gf180mcu_fd_sc_mcu7t5v0__tieh

*CAP
1 *116:Z *148:ZN 0.0438688
2 *116:Z 0.867081
*END

*D_NET *53 0.78168

*CONN
*I *117:Z O *C 80.9200 2.3050 *D gf180mcu_fd_sc_mcu7t5v0__tieh

*CAP
1 *117:Z *26:2 0.0261733
2 *117:Z *92 0.000500201
3 *117:Z *28:2 0.0424587
4 *117:Z 0.712547
*END

*D_NET *54 0.849608

*CONN
*I *118:Z O *C 87.5500 5.8525 *D gf180mcu_fd_sc_mcu7t5v0__tieh

*CAP
1 *118:Z *29:2 0.0192759
2 *118:Z 0.830332
*END

*D_NET *55 0.767894

*CONN
*I *119:Z O *C 87.6400 2.3050 *D gf180mcu_fd_sc_mcu7t5v0__tieh

*CAP
1 *119:Z *28:2 0.0664313
2 *119:Z *94 0.000450344
3 *119:Z *30:2 0.0166265
4 *119:Z 0.684386
*END

*D_NET *56 0.911398

*CONN
*I *120:Z O *C 93.1500 5.8525 *D gf180mcu_fd_sc_mcu7t5v0__tieh

*CAP
1 *120:Z *31:2 0.0439897
2 *120:Z 0.867408
*END

*D_NET *57 0.72665

*CONN
*I *121:Z O *C 93.2400 2.3050 *D gf180mcu_fd_sc_mcu7t5v0__tieh

*CAP
1 *121:Z *94 0.000118414
2 *121:Z *30:2 0.00173184
3 *121:Z *96 0.000470201
4 *121:Z *32:2 0.0303078
5 *121:Z 0.694022
*END

*D_NET *58 0.916639

*CONN
*I *122:Z O *C 13.6300 5.8525 *D gf180mcu_fd_sc_mcu7t5v0__tieh

*CAP
1 *122:Z *5:2 0.0468755
2 *122:Z 0.869763
*END

*D_NET *59 0.958963

*CONN
*I *123:Z O *C 99.8700 5.8525 *D gf180mcu_fd_sc_mcu7t5v0__tieh

*CAP
1 *123:Z *33:2 0.0192611
2 *123:Z 0.939701
*END

*D_NET *60 0.943081

*CONN
*I *124:Z O *C 99.9600 2.3050 *D gf180mcu_fd_sc_mcu7t5v0__tieh

*CAP
1 *124:Z *32:2 0.00196085
2 *124:Z *34:2 0.0344332
3 *124:Z 0.906687
*END

*D_NET *61 0.746565

*CONN
*I *125:Z O *C 13.7200 2.3050 *D gf180mcu_fd_sc_mcu7t5v0__tieh

*CAP
1 *125:Z *71 0.042444
2 *125:Z 0.704121
*END

*D_NET *62 0.861124

*CONN
*I *126:Z O *C 19.2300 5.8525 *D gf180mcu_fd_sc_mcu7t5v0__tieh

*CAP
1 *126:Z *7:2 0.0219906
2 *126:Z 0.839133
*END

*D_NET *63 0.863562

*CONN
*I *127:Z O *C 19.3200 2.3050 *D gf180mcu_fd_sc_mcu7t5v0__tieh

*CAP
1 *127:Z *8:2 0.0560976
2 *127:Z 0.807464
*END

*D_NET *64 0.894462

*CONN
*I *128:Z O *C 25.9500 5.8525 *D gf180mcu_fd_sc_mcu7t5v0__tieh

*CAP
1 *128:Z *9:2 0.0585403
2 *128:Z 0.835922
*END

*D_NET *65 0.768794

*CONN
*I *129:Z O *C 26.0400 2.3050 *D gf180mcu_fd_sc_mcu7t5v0__tieh

*CAP
1 *129:Z *10:2 0.0443348
2 *129:Z 0.724459
*END

*D_NET *66 0.873615

*CONN
*I *130:Z O *C 31.5500 5.8525 *D gf180mcu_fd_sc_mcu7t5v0__tieh

*CAP
1 *130:Z *11:2 0.0297786
2 *130:Z 0.843836
*END

*D_NET *67 0.741976

*CONN
*I *131:Z O *C 31.6400 2.3050 *D gf180mcu_fd_sc_mcu7t5v0__tieh

*CAP
1 *131:Z *11:2 0.00115401
2 *131:Z *12:2 0.0500583
3 *131:Z 0.690763
*END
