*SPEF "IEEE 1481-1999"
*DESIGN "user_id_programming"
*DATE "Tue Oct 17 02:41:18 2023"
*VENDOR "Synopsys Inc."
*PROGRAM "StarRC"
*VERSION "U-2022.12-SP4"
*DESIGN_FLOW "PIN_CAP NONE" "NAME_SCOPE LOCAL"
*DIVIDER /
*DELIMITER :
*BUS_DELIMITER ()
*T_UNIT 1.0 NS
*C_UNIT 1.0 FF
*R_UNIT 1.0 OHM
*L_UNIT 1.0 HENRY

// COMMENTS

// CORNER_NAME 
// OPERATING_TEMPERATURE -40
// GLOBAL_TEMPERATURE 25
// TCAD_GRD_FILE /home/passant/caravel-gf180mcu/scripts/gf180mcu-tech/gf180mcu_1p5m_1tm_11k_sp_smim_OPTB_bst.nxtgrd
//   TCAD_TIME_STAMP Tue Dec 26 18:39:34 2017
//   TCADGRD_VERSION 75
// galaxy_comments_begin
//   local_nodeid
// galaxy_comments_end

*NAME_MAP
*68 mask_rev\[0\]
*69 mask_rev\[1\]
*70 mask_rev\[2\]
*71 mask_rev\[3\]
*72 mask_rev\[4\]
*73 mask_rev\[5\]
*74 mask_rev\[6\]
*75 mask_rev\[7\]
*76 mask_rev\[8\]
*77 mask_rev\[9\]
*78 mask_rev\[10\]
*79 mask_rev\[11\]
*80 mask_rev\[12\]
*81 mask_rev\[13\]
*82 mask_rev\[14\]
*83 mask_rev\[15\]
*84 mask_rev\[16\]
*85 mask_rev\[17\]
*86 mask_rev\[18\]
*87 mask_rev\[19\]
*88 mask_rev\[20\]
*89 mask_rev\[21\]
*90 mask_rev\[22\]
*91 mask_rev\[23\]
*92 mask_rev\[24\]
*93 mask_rev\[25\]
*94 mask_rev\[26\]
*95 mask_rev\[27\]
*96 mask_rev\[28\]
*97 mask_rev\[29\]
*98 mask_rev\[30\]
*99 mask_rev\[31\]
*100 mask_rev_value_one\[0\]
*101 mask_rev_value_one\[10\]
*102 mask_rev_value_one\[11\]
*103 mask_rev_value_one\[12\]
*104 mask_rev_value_one\[13\]
*105 mask_rev_value_one\[14\]
*106 mask_rev_value_one\[15\]
*107 mask_rev_value_one\[16\]
*108 mask_rev_value_one\[17\]
*109 mask_rev_value_one\[18\]
*110 mask_rev_value_one\[19\]
*111 mask_rev_value_one\[1\]
*112 mask_rev_value_one\[20\]
*113 mask_rev_value_one\[21\]
*114 mask_rev_value_one\[22\]
*115 mask_rev_value_one\[23\]
*116 mask_rev_value_one\[24\]
*117 mask_rev_value_one\[25\]
*118 mask_rev_value_one\[26\]
*119 mask_rev_value_one\[27\]
*120 mask_rev_value_one\[28\]
*121 mask_rev_value_one\[29\]
*122 mask_rev_value_one\[2\]
*123 mask_rev_value_one\[30\]
*124 mask_rev_value_one\[31\]
*125 mask_rev_value_one\[3\]
*126 mask_rev_value_one\[4\]
*127 mask_rev_value_one\[5\]
*128 mask_rev_value_one\[6\]
*129 mask_rev_value_one\[7\]
*130 mask_rev_value_one\[8\]
*131 mask_rev_value_one\[9\]
*132 mask_rev_value_zero\[0\]
*133 mask_rev_value_zero\[10\]
*134 mask_rev_value_zero\[11\]
*135 mask_rev_value_zero\[12\]
*136 mask_rev_value_zero\[13\]
*137 mask_rev_value_zero\[14\]
*138 mask_rev_value_zero\[15\]
*139 mask_rev_value_zero\[16\]
*140 mask_rev_value_zero\[17\]
*141 mask_rev_value_zero\[18\]
*142 mask_rev_value_zero\[19\]
*143 mask_rev_value_zero\[1\]
*144 mask_rev_value_zero\[20\]
*145 mask_rev_value_zero\[21\]
*146 mask_rev_value_zero\[22\]
*147 mask_rev_value_zero\[23\]
*148 mask_rev_value_zero\[24\]
*149 mask_rev_value_zero\[25\]
*150 mask_rev_value_zero\[26\]
*151 mask_rev_value_zero\[27\]
*152 mask_rev_value_zero\[28\]
*153 mask_rev_value_zero\[29\]
*154 mask_rev_value_zero\[2\]
*155 mask_rev_value_zero\[30\]
*156 mask_rev_value_zero\[31\]
*157 mask_rev_value_zero\[3\]
*158 mask_rev_value_zero\[4\]
*159 mask_rev_value_zero\[5\]
*160 mask_rev_value_zero\[6\]
*161 mask_rev_value_zero\[7\]
*162 mask_rev_value_zero\[8\]
*163 mask_rev_value_zero\[9\]
*3 mask_rev\[0\]
*4 mask_rev\[1\]
*5 mask_rev\[2\]
*6 mask_rev\[3\]
*7 mask_rev\[4\]
*8 mask_rev\[5\]
*9 mask_rev\[6\]
*10 mask_rev\[7\]
*11 mask_rev\[8\]
*12 mask_rev\[9\]
*13 mask_rev\[10\]
*14 mask_rev\[11\]
*15 mask_rev\[12\]
*16 mask_rev\[13\]
*17 mask_rev\[14\]
*18 mask_rev\[15\]
*19 mask_rev\[16\]
*20 mask_rev\[17\]
*21 mask_rev\[18\]
*22 mask_rev\[19\]
*23 mask_rev\[20\]
*24 mask_rev\[21\]
*25 mask_rev\[22\]
*26 mask_rev\[23\]
*27 mask_rev\[24\]
*28 mask_rev\[25\]
*29 mask_rev\[26\]
*30 mask_rev\[27\]
*31 mask_rev\[28\]
*32 mask_rev\[29\]
*33 mask_rev\[30\]
*34 mask_rev\[31\]
*36 mask_rev_value_one\[0\]/Z
*37 mask_rev_value_one\[10\]/Z
*38 mask_rev_value_one\[11\]/Z
*39 mask_rev_value_one\[12\]/Z
*40 mask_rev_value_one\[13\]/Z
*41 mask_rev_value_one\[14\]/Z
*42 mask_rev_value_one\[15\]/Z
*43 mask_rev_value_one\[16\]/Z
*44 mask_rev_value_one\[17\]/Z
*45 mask_rev_value_one\[18\]/Z
*46 mask_rev_value_one\[19\]/Z
*47 mask_rev_value_one\[1\]/Z
*48 mask_rev_value_one\[20\]/Z
*49 mask_rev_value_one\[21\]/Z
*50 mask_rev_value_one\[22\]/Z
*51 mask_rev_value_one\[23\]/Z
*52 mask_rev_value_one\[24\]/Z
*53 mask_rev_value_one\[25\]/Z
*54 mask_rev_value_one\[26\]/Z
*55 mask_rev_value_one\[27\]/Z
*56 mask_rev_value_one\[28\]/Z
*57 mask_rev_value_one\[29\]/Z
*58 mask_rev_value_one\[2\]/Z
*59 mask_rev_value_one\[30\]/Z
*60 mask_rev_value_one\[31\]/Z
*61 mask_rev_value_one\[3\]/Z
*62 mask_rev_value_one\[4\]/Z
*63 mask_rev_value_one\[5\]/Z
*64 mask_rev_value_one\[6\]/Z
*65 mask_rev_value_one\[7\]/Z
*66 mask_rev_value_one\[8\]/Z
*67 mask_rev_value_one\[9\]/Z

*PORTS

*68 B
*69 B
*70 B
*71 B
*72 B
*73 B
*74 B
*75 B
*76 B
*77 B
*78 B
*79 B
*80 B
*81 B
*82 B
*83 B
*84 B
*85 B
*86 B
*87 B
*88 B
*89 B
*90 B
*91 B
*92 B
*93 B
*94 B
*95 B
*96 B
*97 B
*98 B
*99 B

*D_NET *3 2.09352

*CONN
*P *68 B *C 0.2800 -1.0750
*I *132:ZN O *C 9.2400 6.4400 *D gf180mcu_fd_sc_mcu7t5v0__tiel

*CAP
1 *3:2 *4:2 0.206596
2 *3:2 *5:2 0.00451827
3 *3:2 *100:Z 0.039094
4 *3:2 *111:Z 0.00434262
5 *68 0.216784
6 *132:ZN 0.0732955
7 *3:2 1.30537
8 *3:3 0.111082
9 *3:4 0.132445
10 *3:5 0.0

*RES
1 *68 *3:2 1.89279
2 *132:ZN *3:2 5.88877
3 *132:ZN *3:5 0.001
4 *132:ZN *3:3 0.001
5 *3:3 *3:4 0.190847
*END

*D_NET *4 1.34351

*CONN
*P *69 B *C 3.6400 -1.0750
*I *143:ZN O *C 9.2400 1.4000 *D gf180mcu_fd_sc_mcu7t5v0__tiel

*CAP
1 *4:2 *3:2 0.206596
2 *4:2 *5:2 0.166013
3 *4:2 *111:Z 0.0237689
4 *69 0.269561
5 *4:2 0.435846
6 *4:3 0.124436
7 *4:4 0.117289
8 *4:5 0.0

*RES
1 *69 *4:2 0.54508
2 *143:ZN *4:2 5.32177
3 *143:ZN *4:5 0.001
4 *143:ZN *4:4 0.001
5 *4:3 *4:4 0.196028
*END

*D_NET *5 2.36953

*CONN
*P *70 B *C 7.5600 -1.0750
*I *154:ZN O *C 15.9600 6.4400 *D gf180mcu_fd_sc_mcu7t5v0__tiel

*CAP
1 *5:2 *3:2 0.00451827
2 *5:2 *4:2 0.166013
3 *5:2 *71 0.205566
4 *5:2 *6:6 0.0162887
5 *5:2 *7:2 0.067602
6 *5:2 *111:Z 0.00359851
7 *5:2 *122:Z 0.0368554
8 *70 0.233792
9 *154:ZN 0.0750412
10 *5:2 1.31801
11 *5:3 0.109797
12 *5:4 0.132445
13 *5:5 0.0

*RES
1 *70 *5:2 1.36103
2 *154:ZN *5:5 0.001
3 *154:ZN *5:2 6.28828
4 *154:ZN *5:3 0.001
5 *5:3 *5:4 0.190847
*END

*D_NET *6 1.39126

*CONN
*P *71 B *C 11.0600 -0.0700
*I *157:ZN O *C 15.9600 1.4000 *D gf180mcu_fd_sc_mcu7t5v0__tiel

*CAP
1 *71 *5:2 0.205566
2 *6:6 *5:2 0.0162887
3 *71 *72 0.108311
4 *71 *7:2 0.118503
5 *6:6 *72 0.0304102
6 *71 *125:Z 0.0335979
7 *71 0.228883
8 *6:2 0.293287
9 *6:3 0.115892
10 *6:4 0.116564
11 *6:6 0.123957

*RES
1 *71 *6:2 0.731584
2 *71 *6:6 0.001
3 *157:ZN *6:2 4.83122
4 *157:ZN *6:5 0.001
5 *157:ZN *6:4 0.001
6 *6:3 *6:4 0.196028
*END

*D_NET *7 1.96039

*CONN
*P *72 B *C 14.2800 -1.0750
*I *158:ZN O *C 21.5600 6.4400 *D gf180mcu_fd_sc_mcu7t5v0__tiel

*CAP
1 *7:2 *5:2 0.067602
2 *72 *71 0.108311
3 *7:2 *71 0.118503
4 *72 *6:6 0.0304102
5 *72 *8:2 0.0406578
6 *7:2 *8:2 0.125227
7 *7:2 *9:2 0.0325312
8 *7:2 *126:Z 0.0171912
9 *72 0.0379483
10 *158:ZN 0.112118
11 *7:2 1.02634
12 *7:3 0.111082
13 *7:4 0.13247
14 *7:5 0.0

*RES
1 *72 *7:2 0.807074
2 *158:ZN *7:2 6.57345
3 *158:ZN *7:5 0.001
4 *158:ZN *7:3 0.001
5 *7:3 *7:4 0.190847
*END

*D_NET *8 1.07799

*CONN
*P *73 B *C 17.6400 -1.0750
*I *159:ZN O *C 21.5600 1.4000 *D gf180mcu_fd_sc_mcu7t5v0__tiel

*CAP
1 *8:2 *72 0.0406578
2 *8:2 *7:2 0.125227
3 *8:2 *74 0.107751
4 *8:2 *9:2 0.022747
5 *8:2 *127:Z 0.044906
6 *73 0.240883
7 *8:2 0.258001
8 *8:3 0.120659
9 *8:4 0.117157
10 *8:5 0.0

*RES
1 *73 *8:2 0.54508
2 *159:ZN *8:5 0.001
3 *159:ZN *8:4 0.001
4 *159:ZN *8:2 4.99538
5 *8:3 *8:4 0.196028
*END

*D_NET *9 1.84397

*CONN
*P *74 B *C 21.0000 -1.0750
*I *160:ZN O *C 28.2800 6.4400 *D gf180mcu_fd_sc_mcu7t5v0__tiel

*CAP
1 *9:2 *7:2 0.0325312
2 *74 *8:2 0.107751
3 *9:2 *8:2 0.022747
4 *74 *10:2 0.0368985
5 *9:2 *10:2 0.0190631
6 *9:2 *11:2 0.042475
7 *9:2 *128:Z 0.0465358
8 *74 0.0556846
9 *160:ZN 0.0958916
10 *9:2 1.13293
11 *9:3 0.119024
12 *9:4 0.132445
13 *9:5 0.0

*RES
1 *74 *9:2 0.994688
2 *160:ZN *9:2 6.39736
3 *160:ZN *9:5 0.001
4 *160:ZN *9:3 0.001
5 *9:3 *9:4 0.190847
*END

*D_NET *10 1.03109

*CONN
*P *75 B *C 24.9200 -1.0750
*I *161:ZN O *C 28.2800 1.4000 *D gf180mcu_fd_sc_mcu7t5v0__tiel

*CAP
1 *10:2 *74 0.0368985
2 *10:2 *9:2 0.0190631
3 *10:2 *11:2 0.108276
4 *10:2 *129:Z 0.0350913
5 *75 0.304985
6 *10:2 0.297355
7 *10:3 0.113414
8 *10:4 0.116003
9 *10:5 0.0

*RES
1 *75 *10:2 0.54508
2 *161:ZN *10:2 4.88659
3 *161:ZN *10:5 0.001
4 *161:ZN *10:4 0.001
5 *10:3 *10:4 0.196028
*END

*D_NET *11 1.99446

*CONN
*P *76 B *C 28.2800 -1.0750
*I *162:ZN O *C 33.8800 6.4400 *D gf180mcu_fd_sc_mcu7t5v0__tiel

*CAP
1 *11:2 *9:2 0.042475
2 *11:2 *10:2 0.108276
3 *11:2 *12:2 0.0848348
4 *11:2 *13:2 0.04958
5 *11:2 *130:Z 0.0234463
6 *11:2 *131:Z 0.00100242
7 *76 0.0921985
8 *162:ZN 0.0732915
9 *11:2 1.27637
10 *11:3 0.110514
11 *11:4 0.13247
12 *11:5 0.0

*RES
1 *76 *11:2 0.801523
2 *162:ZN *11:2 6.24624
3 *162:ZN *11:5 0.001
4 *162:ZN *11:3 0.001
5 *11:3 *11:4 0.190847
*END

*D_NET *12 0.928682

*CONN
*P *77 B *C 31.6400 -1.0750
*I *163:ZN O *C 33.8800 1.4000 *D gf180mcu_fd_sc_mcu7t5v0__tiel

*CAP
1 *12:2 *11:2 0.0848348
2 *12:2 *78 0.0401218
3 *12:2 *131:Z 0.0397847
4 *77 0.269405
5 *12:2 0.23953
6 *12:3 0.127459
7 *12:4 0.127547
8 *12:5 0.0

*RES
1 *77 *12:2 0.54508
2 *163:ZN *12:2 4.669
3 *163:ZN *12:5 0.001
4 *163:ZN *12:4 0.001
5 *12:3 *12:4 0.196028
*END

*D_NET *13 1.67471

*CONN
*P *78 B *C 35.0000 -1.0750
*I *133:ZN O *C 40.6000 6.4400 *D gf180mcu_fd_sc_mcu7t5v0__tiel

*CAP
1 *13:2 *11:2 0.04958
2 *78 *12:2 0.0401218
3 *78 *14:2 0.0472072
4 *13:2 *80 0.0247965
5 *13:2 *101:Z 0.0294584
6 *78 0.775332
7 *13:2 0.465907
8 *13:3 0.109861
9 *13:4 0.132445
10 *13:5 0.0

*RES
1 *78 *13:2 1.6641
2 *133:ZN *13:5 0.001
3 *133:ZN *13:2 5.32177
4 *133:ZN *13:3 0.001
5 *13:3 *13:4 0.190847
*END

*D_NET *14 0.792678

*CONN
*P *79 B *C 38.9200 -1.0750
*I *134:ZN O *C 40.6000 1.4000 *D gf180mcu_fd_sc_mcu7t5v0__tiel

*CAP
1 *14:2 *78 0.0472072
2 *14:2 *80 0.065423
3 *14:2 *102:Z 0.0313152
4 *79 0.245906
5 *14:2 0.159313
6 *14:3 0.127652
7 *14:4 0.115861
8 *14:5 0.0

*RES
1 *79 *14:2 0.54508
2 *134:ZN *14:2 4.56021
3 *134:ZN *14:5 0.001
4 *134:ZN *14:4 0.001
5 *14:3 *14:4 0.196028
*END

*D_NET *15 1.44053

*CONN
*P *80 B *C 42.2800 -1.0750
*I *135:ZN O *C 46.2000 6.4400 *D gf180mcu_fd_sc_mcu7t5v0__tiel

*CAP
1 *80 *13:2 0.0247965
2 *80 *14:2 0.065423
3 *80 *16:2 0.0583284
4 *80 *82 0.0122969
5 *80 *103:Z 0.0285566
6 *80 0.701559
7 *15:2 0.306028
8 *15:3 0.11107
9 *15:4 0.13247
10 *15:5 0.0

*RES
1 *80 *15:2 1.6641
2 *135:ZN *15:2 4.99538
3 *135:ZN *15:5 0.001
4 *135:ZN *15:3 0.001
5 *15:3 *15:4 0.190847
*END

*D_NET *16 0.86547

*CONN
*P *81 B *C 45.6400 -1.0750
*I *136:ZN O *C 46.2000 1.4000 *D gf180mcu_fd_sc_mcu7t5v0__tiel

*CAP
1 *16:2 *80 0.0583284
2 *16:2 *82 0.0527194
3 *16:2 *104:Z 0.02913
4 *81 0.257981
5 *16:2 0.226467
6 *16:3 0.123631
7 *16:4 0.117213
8 *16:5 0.0

*RES
1 *81 *16:2 0.54508
2 *136:ZN *16:5 0.001
3 *136:ZN *16:4 0.001
4 *136:ZN *16:2 4.34262
5 *16:3 *16:4 0.196028
*END

*D_NET *17 1.44776

*CONN
*P *82 B *C 49.0000 -1.0750
*I *137:ZN O *C 52.9200 6.4400 *D gf180mcu_fd_sc_mcu7t5v0__tiel

*CAP
1 *82 *80 0.0122969
2 *82 *16:2 0.0527194
3 *82 *18:2 0.0622154
4 *82 *19:2 0.00167557
5 *82 *105:Z 0.0283421
6 *82 0.708412
7 *17:2 0.333261
8 *17:3 0.110396
9 *17:4 0.138438
10 *17:5 0.0

*RES
1 *82 *17:2 1.6641
2 *137:ZN *17:2 4.99538
3 *137:ZN *17:5 0.001
4 *137:ZN *17:3 0.001
5 *17:3 *17:4 0.190847
*END

*D_NET *18 0.894804

*CONN
*P *83 B *C 52.3600 -1.0750
*I *138:ZN O *C 52.9200 1.4000 *D gf180mcu_fd_sc_mcu7t5v0__tiel

*CAP
1 *18:2 *82 0.0622154
2 *18:2 *19:2 0.0231832
3 *18:2 *106:Z 0.0291135
4 *83 0.265253
5 *18:2 0.271798
6 *18:3 0.127228
7 *18:4 0.116013
8 *18:5 0.0

*RES
1 *83 *18:2 0.54508
2 *138:ZN *18:2 4.34262
3 *138:ZN *18:5 0.001
4 *138:ZN *18:4 0.001
5 *18:3 *18:4 0.196028
*END

*D_NET *19 1.47743

*CONN
*P *84 B *C 56.2800 -1.0750
*I *139:ZN O *C 58.5200 6.4400 *D gf180mcu_fd_sc_mcu7t5v0__tiel

*CAP
1 *19:2 *82 0.00167557
2 *19:2 *18:2 0.0231832
3 *19:2 *20:2 0.068813
4 *19:2 *21:2 0.00644057
5 *19:2 *107:Z 0.0309066
6 *19:2 *108:Z 0.00367002
7 *84 0.363549
8 *139:ZN 0.035457
9 *19:2 0.700173
10 *19:3 0.111094
11 *19:4 0.13247
12 *19:5 0.0

*RES
1 *84 *19:2 0.874792
2 *139:ZN *19:2 5.45276
3 *139:ZN *19:5 0.001
4 *139:ZN *19:3 0.001
5 *19:3 *19:4 0.190847
*END

*D_NET *20 0.905401

*CONN
*P *85 B *C 59.6400 -1.0750
*I *140:ZN O *C 58.5200 1.4000 *D gf180mcu_fd_sc_mcu7t5v0__tiel

*CAP
1 *20:2 *19:2 0.068813
2 *20:2 *21:2 0.0415706
3 *20:2 *108:Z 0.00418219
4 *85 0.269573
5 *20:2 0.279854
6 *20:3 0.125624
7 *20:4 0.115785
8 *20:5 0.0

*RES
1 *85 *20:2 0.54508
2 *140:ZN *20:2 4.45141
3 *140:ZN *20:5 0.001
4 *140:ZN *20:4 0.001
5 *20:3 *20:4 0.196028
*END

*D_NET *21 1.52696

*CONN
*P *86 B *C 62.8600 -0.1300
*I *141:ZN O *C 65.2400 6.4400 *D gf180mcu_fd_sc_mcu7t5v0__tiel

*CAP
1 *21:2 *19:2 0.00644057
2 *21:2 *20:2 0.0415706
3 *21:2 *22:2 0.0715476
4 *21:2 *88 0.02258
5 *21:2 *109:Z 0.0102681
6 *21:2 *110:Z 0.016064
7 *86 0.47727
8 *141:ZN 0.0322926
9 *21:2 0.558825
10 *21:3 0.00173231
11 *21:4 0.0455238
12 *21:5 0.110396
13 *21:6 0.132445
14 *21:7 0.0

*RES
1 *86 *21:2 0.680517
2 *86 *21:3 0.001
3 *141:ZN *21:7 0.001
4 *141:ZN *21:2 5.4239
5 *141:ZN *21:5 0.001
6 *21:3 *21:4 0.001
7 *21:5 *21:6 0.190847
*END

*D_NET *22 0.810373

*CONN
*P *87 B *C 66.3600 -1.0750
*I *142:ZN O *C 65.2400 1.4000 *D gf180mcu_fd_sc_mcu7t5v0__tiel

*CAP
1 *22:2 *21:2 0.0715476
2 *22:2 *88 0.0735586
3 *22:2 *110:Z 0.00418219
4 *87 0.208732
5 *22:2 0.210064
6 *22:3 0.125618
7 *22:4 0.11667
8 *22:5 0.0

*RES
1 *87 *22:2 0.54508
2 *142:ZN *22:2 4.45141
3 *142:ZN *22:5 0.001
4 *142:ZN *22:4 0.001
5 *22:3 *22:4 0.196028
*END

*D_NET *23 1.63596

*CONN
*P *88 B *C 70.1400 -0.0675
*I *144:ZN O *C 70.8400 6.4400 *D gf180mcu_fd_sc_mcu7t5v0__tiel

*CAP
1 *88 *21:2 0.02258
2 *88 *22:2 0.0735586
3 *88 *24:2 0.132522
4 *88 *90 0.00696126
5 *88 *112:Z 0.0214027
6 *88 *113:Z 0.00433326
7 *88 0.620952
8 *23:2 0.470491
9 *23:3 0.0395957
10 *23:4 0.111094
11 *23:5 0.13247
12 *23:6 0.0

*RES
1 *88 *23:2 1.82554
2 *88 *23:3 0.001
3 *144:ZN *23:2 4.72728
4 *144:ZN *23:6 0.001
5 *144:ZN *23:4 0.001
6 *23:4 *23:5 0.190847
*END

*D_NET *24 1.14252

*CONN
*P *89 B *C 73.6400 -1.0750
*I *145:ZN O *C 70.8400 1.4000 *D gf180mcu_fd_sc_mcu7t5v0__tiel

*CAP
1 *24:2 *88 0.132522
2 *24:2 *90 0.0694794
3 *24:2 *113:Z 0.0248448
4 *89 0.262768
5 *24:2 0.41372
6 *24:3 0.123397
7 *24:4 0.115785
8 *24:5 0.0

*RES
1 *89 *24:2 0.54508
2 *145:ZN *24:5 0.001
3 *145:ZN *24:4 0.001
4 *145:ZN *24:2 4.7778
5 *24:3 *24:4 0.196028
*END

*D_NET *25 1.76493

*CONN
*P *90 B *C 77.0000 -1.0750
*I *146:ZN O *C 77.5600 6.4400 *D gf180mcu_fd_sc_mcu7t5v0__tiel

*CAP
1 *90 *88 0.00696126
2 *90 *24:2 0.0694794
3 *90 *26:2 0.111489
4 *90 *148:ZN 0.00541316
5 *90 *114:Z 0.0192413
6 *90 *115:Z 0.00455708
7 *90 0.634139
8 *25:2 0.67108
9 *25:3 0.11041
10 *25:4 0.132159
11 *25:5 0.0

*RES
1 *90 *25:2 2.09373
2 *146:ZN *25:2 4.71854
3 *146:ZN *25:5 0.001
4 *146:ZN *25:3 0.001
5 *25:3 *25:4 0.190847
*END

*D_NET *26 1.1676

*CONN
*P *91 B *C 80.3600 -1.0750
*I *147:ZN O *C 77.5600 1.4000 *D gf180mcu_fd_sc_mcu7t5v0__tiel

*CAP
1 *26:2 *90 0.111489
2 *26:2 *92 0.0456885
3 *26:2 *28:2 0.03928
4 *26:2 *115:Z 0.0177527
5 *26:2 *117:Z 0.0223687
6 *91 0.275918
7 *26:2 0.417414
8 *26:3 0.123289
9 *26:4 0.114398
10 *26:5 0.0

*RES
1 *91 *26:2 0.54508
2 *147:ZN *26:2 4.7778
3 *147:ZN *26:5 0.001
4 *147:ZN *26:4 0.001
5 *26:3 *26:4 0.196028
*END

*D_NET *27 1.96553

*CONN
*P *92 B *C 83.7200 -1.0750
*I *148:ZN O *C 83.1600 6.4400 *D gf180mcu_fd_sc_mcu7t5v0__tiel

*CAP
1 *148:ZN *90 0.00541316
2 *92 *26:2 0.0456885
3 *92 *28:2 0.250316
4 *148:ZN *29:2 0.00728535
5 *148:ZN *116:Z 0.0342651
6 *92 *117:Z 0.000900975
7 *92 0.219868
8 *148:ZN 0.282735
9 *27:2 0.110611
10 *27:3 0.13247
11 *27:4 0.875977
12 *27:5 0.0

*RES
1 *92 *27:4 4.71918
2 *148:ZN *27:4 9.74877
3 *148:ZN *27:5 0.001
4 *148:ZN *27:2 0.001
5 *27:2 *27:3 0.190847
*END

*D_NET *28 1.35491

*CONN
*P *93 B *C 87.5000 -0.3587
*I *149:ZN O *C 83.1600 1.4000 *D gf180mcu_fd_sc_mcu7t5v0__tiel

*CAP
1 *28:2 *26:2 0.03928
2 *28:2 *92 0.250316
3 *28:2 *94 0.052312
4 *28:2 *117:Z 0.033632
5 *28:2 *119:Z 0.0523479
6 *93 0.161116
7 *28:2 0.469963
8 *28:3 0.0726914
9 *28:4 0.117878
10 *28:5 0.105372
11 *28:6 0.0

*RES
1 *93 *28:3 0.0778047
2 *149:ZN *28:2 5.09932
3 *149:ZN *28:6 0.001
4 *149:ZN *28:5 0.001
5 *28:2 *28:3 0.299461
6 *28:4 *28:5 0.196028
*END

*D_NET *29 2.0128

*CONN
*P *94 B *C 91.0000 -1.0750
*I *150:ZN O *C 89.8800 6.4400 *D gf180mcu_fd_sc_mcu7t5v0__tiel

*CAP
1 *29:2 *148:ZN 0.00728535
2 *94 *28:2 0.052312
3 *94 *30:2 0.360916
4 *29:2 *31:2 0.00997579
5 *29:2 *118:Z 0.0147871
6 *94 *119:Z 0.00082389
7 *94 *121:Z 0.00022583
8 *94 0.501727
9 *29:2 0.82246
10 *29:3 0.10984
11 *29:4 0.132445
12 *29:5 0.0

*RES
1 *94 *29:2 10.2118
2 *150:ZN *29:2 4.35913
3 *150:ZN *29:5 0.001
4 *150:ZN *29:3 0.001
5 *29:3 *29:4 0.190847
*END

*D_NET *30 1.38457

*CONN
*P *95 B *C 94.3600 -1.0750
*I *151:ZN O *C 89.8800 1.4000 *D gf180mcu_fd_sc_mcu7t5v0__tiel

*CAP
1 *30:2 *94 0.360916
2 *30:2 *96 0.0522571
3 *30:2 *32:2 0.144128
4 *30:2 *119:Z 0.0139046
5 *30:2 *121:Z 0.00147345
6 *95 0.319526
7 *151:ZN 0.0656357
8 *30:2 0.210262
9 *30:3 0.114378
10 *30:4 0.10209
11 *30:5 0.0

*RES
1 *95 *30:2 1.09238
2 *151:ZN *30:2 4.62529
3 *151:ZN *30:5 0.001
4 *151:ZN *30:4 0.001
5 *30:3 *30:4 0.196028
*END

*D_NET *31 2.43288

*CONN
*P *96 B *C 97.7200 -1.0750
*I *152:ZN O *C 95.4800 6.4400 *D gf180mcu_fd_sc_mcu7t5v0__tiel

*CAP
1 *31:2 *29:2 0.00997579
2 *96 *30:2 0.0522571
3 *96 *32:2 0.440498
4 *31:2 *33:2 0.000928492
5 *31:2 *120:Z 0.0343908
6 *96 *121:Z 0.000854723
7 *96 0.765385
8 *31:2 0.883972
9 *31:3 0.11059
10 *31:4 0.134027
11 *31:5 0.0

*RES
1 *96 *31:2 10.4766
2 *152:ZN *31:2 4.35428
3 *152:ZN *31:5 0.001
4 *152:ZN *31:3 0.001
5 *31:3 *31:4 0.190847
*END

*D_NET *32 2.04604

*CONN
*P *97 B *C 101.6400 -1.0750
*I *153:ZN O *C 95.4800 1.4000 *D gf180mcu_fd_sc_mcu7t5v0__tiel

*CAP
1 *32:2 *30:2 0.144128
2 *32:2 *96 0.440498
3 *32:2 *98 0.0684239
4 *32:2 *34:2 0.206492
5 *32:2 *121:Z 0.0237985
6 *32:2 *124:Z 0.00159783
7 *97 0.456498
8 *32:2 0.489575
9 *32:3 0.113048
10 *32:4 0.101976
11 *32:5 0.0

*RES
1 *97 *32:2 1.16343
2 *153:ZN *32:5 0.001
3 *153:ZN *32:4 0.001
4 *153:ZN *32:2 4.8895
5 *32:3 *32:4 0.196028
*END

*D_NET *33 2.2346

*CONN
*P *98 B *C 105.0000 -1.0750
*I *155:ZN O *C 102.2000 6.4400 *D gf180mcu_fd_sc_mcu7t5v0__tiel

*CAP
1 *33:2 *31:2 0.000928492
2 *98 *32:2 0.0684239
3 *98 *34:2 0.468971
4 *33:2 *123:Z 0.0147762
5 *98 0.576866
6 *33:2 0.86225
7 *33:3 0.109943
8 *33:4 0.132445
9 *33:5 0.0

*RES
1 *98 *33:2 10.5999
2 *155:ZN *33:2 4.35136
3 *155:ZN *33:5 0.001
4 *155:ZN *33:3 0.001
5 *33:3 *33:4 0.190847
*END

*D_NET *34 1.86049

*CONN
*P *99 B *C 108.3600 -1.0750
*I *156:ZN O *C 102.2000 1.4000 *D gf180mcu_fd_sc_mcu7t5v0__tiel

*CAP
1 *34:2 *32:2 0.206492
2 *34:2 *98 0.468971
3 *34:2 *124:Z 0.0270748
4 *99 0.324532
5 *34:2 0.617372
6 *34:3 0.114087
7 *34:4 0.101961
8 *34:5 0.0

*RES
1 *99 *34:2 0.54508
2 *156:ZN *34:2 5.43056
3 *156:ZN *34:5 0.001
4 *156:ZN *34:4 0.001
5 *34:3 *34:4 0.196028
*END

*D_NET *36 0.724518

*CONN
*I *100:Z O *C 6.9100 5.8525 *D gf180mcu_fd_sc_mcu7t5v0__tieh

*CAP
1 *100:Z *3:2 0.039094
2 *100:Z 0.685424
*END

*D_NET *37 0.681325

*CONN
*I *101:Z O *C 38.2700 5.8525 *D gf180mcu_fd_sc_mcu7t5v0__tieh

*CAP
1 *101:Z *13:2 0.0294584
2 *101:Z 0.651866
*END

*D_NET *38 0.632524

*CONN
*I *102:Z O *C 38.3600 2.3050 *D gf180mcu_fd_sc_mcu7t5v0__tieh

*CAP
1 *102:Z *14:2 0.0313152
2 *102:Z 0.601208
*END

*D_NET *39 0.676562

*CONN
*I *103:Z O *C 43.8700 5.8525 *D gf180mcu_fd_sc_mcu7t5v0__tieh

*CAP
1 *103:Z *80 0.0285566
2 *103:Z 0.648005
*END

*D_NET *40 0.603839

*CONN
*I *104:Z O *C 43.9600 2.3050 *D gf180mcu_fd_sc_mcu7t5v0__tieh

*CAP
1 *104:Z *16:2 0.02913
2 *104:Z 0.574709
*END

*D_NET *41 0.677282

*CONN
*I *105:Z O *C 50.5900 5.8525 *D gf180mcu_fd_sc_mcu7t5v0__tieh

*CAP
1 *105:Z *82 0.0283421
2 *105:Z 0.64894
*END

*D_NET *42 0.604844

*CONN
*I *106:Z O *C 50.6800 2.3050 *D gf180mcu_fd_sc_mcu7t5v0__tieh

*CAP
1 *106:Z *18:2 0.0291135
2 *106:Z 0.575731
*END

*D_NET *43 0.68362

*CONN
*I *107:Z O *C 56.1900 5.8525 *D gf180mcu_fd_sc_mcu7t5v0__tieh

*CAP
1 *107:Z *19:2 0.0309066
2 *107:Z 0.652714
*END

*D_NET *44 0.566851

*CONN
*I *108:Z O *C 56.2800 2.3050 *D gf180mcu_fd_sc_mcu7t5v0__tieh

*CAP
1 *108:Z *19:2 0.00367002
2 *108:Z *20:2 0.00418219
3 *108:Z 0.558999
*END

*D_NET *45 0.665352

*CONN
*I *109:Z O *C 62.9100 5.8525 *D gf180mcu_fd_sc_mcu7t5v0__tieh

*CAP
1 *109:Z *21:2 0.0102681
2 *109:Z 0.655084
*END

*D_NET *46 0.581102

*CONN
*I *110:Z O *C 63.0000 2.3050 *D gf180mcu_fd_sc_mcu7t5v0__tieh

*CAP
1 *110:Z *21:2 0.016064
2 *110:Z *22:2 0.00418219
3 *110:Z 0.560856
*END

*D_NET *47 0.639991

*CONN
*I *111:Z O *C 7.0000 2.3050 *D gf180mcu_fd_sc_mcu7t5v0__tieh

*CAP
1 *111:Z *3:2 0.00434262
2 *111:Z *4:2 0.0237689
3 *111:Z *5:2 0.00359851
4 *111:Z 0.608281
*END

*D_NET *48 0.75752

*CONN
*I *112:Z O *C 68.5100 5.8525 *D gf180mcu_fd_sc_mcu7t5v0__tieh

*CAP
1 *112:Z *88 0.0214027
2 *112:Z 0.736117
*END

*D_NET *49 0.769035

*CONN
*I *113:Z O *C 68.6000 2.3050 *D gf180mcu_fd_sc_mcu7t5v0__tieh

*CAP
1 *113:Z *88 0.00433326
2 *113:Z *24:2 0.0248448
3 *113:Z 0.739857
*END

*D_NET *50 0.755449

*CONN
*I *114:Z O *C 75.2300 5.8525 *D gf180mcu_fd_sc_mcu7t5v0__tieh

*CAP
1 *114:Z *90 0.0192413
2 *114:Z 0.736207
*END

*D_NET *51 0.744183

*CONN
*I *115:Z O *C 75.3200 2.3050 *D gf180mcu_fd_sc_mcu7t5v0__tieh

*CAP
1 *115:Z *90 0.00455708
2 *115:Z *26:2 0.0177527
3 *115:Z 0.721873
*END

*D_NET *52 0.711684

*CONN
*I *116:Z O *C 80.8300 5.8525 *D gf180mcu_fd_sc_mcu7t5v0__tieh

*CAP
1 *116:Z *148:ZN 0.0342651
2 *116:Z 0.677419
*END

*D_NET *53 0.62883

*CONN
*I *117:Z O *C 80.9200 2.3050 *D gf180mcu_fd_sc_mcu7t5v0__tieh

*CAP
1 *117:Z *26:2 0.0223687
2 *117:Z *92 0.000900975
3 *117:Z *28:2 0.033632
4 *117:Z 0.571928
*END

*D_NET *54 0.663232

*CONN
*I *118:Z O *C 87.5500 5.8525 *D gf180mcu_fd_sc_mcu7t5v0__tieh

*CAP
1 *118:Z *29:2 0.0147871
2 *118:Z 0.648445
*END

*D_NET *55 0.620264

*CONN
*I *119:Z O *C 87.6400 2.3050 *D gf180mcu_fd_sc_mcu7t5v0__tieh

*CAP
1 *119:Z *28:2 0.0523479
2 *119:Z *94 0.00082389
3 *119:Z *30:2 0.0139046
4 *119:Z 0.553188
*END

*D_NET *56 0.71209

*CONN
*I *120:Z O *C 93.1500 5.8525 *D gf180mcu_fd_sc_mcu7t5v0__tieh

*CAP
1 *120:Z *31:2 0.0343908
2 *120:Z 0.677699
*END

*D_NET *57 0.580623

*CONN
*I *121:Z O *C 93.2400 2.3050 *D gf180mcu_fd_sc_mcu7t5v0__tieh

*CAP
1 *121:Z *94 0.00022583
2 *121:Z *30:2 0.00147345
3 *121:Z *96 0.000854723
4 *121:Z *32:2 0.0237985
5 *121:Z 0.554271
*END

*D_NET *58 0.716819

*CONN
*I *122:Z O *C 13.6300 5.8525 *D gf180mcu_fd_sc_mcu7t5v0__tieh

*CAP
1 *122:Z *5:2 0.0368554
2 *122:Z 0.679964
*END

*D_NET *59 0.748986

*CONN
*I *123:Z O *C 99.8700 5.8525 *D gf180mcu_fd_sc_mcu7t5v0__tieh

*CAP
1 *123:Z *33:2 0.0147762
2 *123:Z 0.73421
*END

*D_NET *60 0.731101

*CONN
*I *124:Z O *C 99.9600 2.3050 *D gf180mcu_fd_sc_mcu7t5v0__tieh

*CAP
1 *124:Z *32:2 0.00159783
2 *124:Z *34:2 0.0270748
3 *124:Z 0.702428
*END

*D_NET *61 0.600046

*CONN
*I *125:Z O *C 13.7200 2.3050 *D gf180mcu_fd_sc_mcu7t5v0__tieh

*CAP
1 *125:Z *71 0.0335979
2 *125:Z 0.566448
*END

*D_NET *62 0.673076

*CONN
*I *126:Z O *C 19.2300 5.8525 *D gf180mcu_fd_sc_mcu7t5v0__tieh

*CAP
1 *126:Z *7:2 0.0171912
2 *126:Z 0.655885
*END

*D_NET *63 0.677769

*CONN
*I *127:Z O *C 19.3200 2.3050 *D gf180mcu_fd_sc_mcu7t5v0__tieh

*CAP
1 *127:Z *8:2 0.044906
2 *127:Z 0.632863
*END

*D_NET *64 0.699506

*CONN
*I *128:Z O *C 25.9500 5.8525 *D gf180mcu_fd_sc_mcu7t5v0__tieh

*CAP
1 *128:Z *9:2 0.0465358
2 *128:Z 0.65297
*END

*D_NET *65 0.615942

*CONN
*I *129:Z O *C 26.0400 2.3050 *D gf180mcu_fd_sc_mcu7t5v0__tieh

*CAP
1 *129:Z *10:2 0.0350913
2 *129:Z 0.580851
*END

*D_NET *66 0.684183

*CONN
*I *130:Z O *C 31.5500 5.8525 *D gf180mcu_fd_sc_mcu7t5v0__tieh

*CAP
1 *130:Z *11:2 0.0234463
2 *130:Z 0.660737
*END

*D_NET *67 0.598516

*CONN
*I *131:Z O *C 31.6400 2.3050 *D gf180mcu_fd_sc_mcu7t5v0__tieh

*CAP
1 *131:Z *11:2 0.00100242
2 *131:Z *12:2 0.0397847
3 *131:Z 0.557729
*END
